* XSpice netlist created from SPICE and liberty sources by spi2xspice.py
*SPICE netlist created from BLIF module core by blif2BSpice
.subckt core a_vdd a_gnd a_clk a_reset a_instructionIn_0_ a_instructionIn_1_ a_instructionIn_2_ a_instructionIn_3_ a_instructionIn_4_ a_instructionIn_5_ a_instructionIn_6_ a_instructionIn_7_ a_instructionIn_8_ a_instructionIn_9_ a_instructionIn_10_ a_instructionIn_11_ a_instructionIn_12_ a_instructionIn_13_ a_instructionIn_14_ a_instructionIn_15_ a_instructionIn_16_ a_instructionIn_17_ a_instructionIn_18_ a_instructionIn_19_ a_instructionIn_20_ a_instructionIn_21_ a_instructionIn_22_ a_instructionIn_23_ a_instructionIn_24_ a_instructionIn_25_ a_instructionIn_26_ a_instructionIn_27_ a_instructionIn_28_ a_instructionIn_29_ a_instructionIn_30_ a_instructionIn_31_ a_start a_busy a_tempRegOut_0_ a_tempRegOut_1_ a_tempRegOut_2_ a_tempRegOut_3_ a_tempRegOut_4_ a_tempRegOut_5_ a_tempRegOut_6_ a_tempRegOut_7_ a_tempRegOut_8_ a_tempRegOut_9_ a_tempRegOut_10_ a_tempRegOut_11_ a_tempRegOut_12_ a_tempRegOut_13_ a_tempRegOut_14_ a_tempRegOut_15_ a_tempRegOut_16_ a_tempRegOut_17_ a_tempRegOut_18_ a_tempRegOut_19_ a_tempRegOut_20_ a_tempRegOut_21_ a_tempRegOut_22_ a_tempRegOut_23_ a_tempRegOut_24_ a_tempRegOut_25_ a_tempRegOut_26_ a_tempRegOut_27_ a_tempRegOut_28_ a_tempRegOut_29_ a_tempRegOut_30_ a_tempRegOut_31_
ABUFX4_1 [clk] clk_hier0_bF$buf9 d_lut_BUFX4
ABUFX4_2 [clk] clk_hier0_bF$buf8 d_lut_BUFX4
ABUFX4_3 [clk] clk_hier0_bF$buf7 d_lut_BUFX4
ABUFX4_4 [clk] clk_hier0_bF$buf6 d_lut_BUFX4
ABUFX4_5 [clk] clk_hier0_bF$buf5 d_lut_BUFX4
ABUFX4_6 [clk] clk_hier0_bF$buf4 d_lut_BUFX4
ABUFX4_7 [clk] clk_hier0_bF$buf3 d_lut_BUFX4
ABUFX4_8 [clk] clk_hier0_bF$buf2 d_lut_BUFX4
ABUFX4_9 [clk] clk_hier0_bF$buf1 d_lut_BUFX4
ABUFX4_10 [clk] clk_hier0_bF$buf0 d_lut_BUFX4
ABUFX4_11 [_19153_] _19153__hier0_bF$buf8 d_lut_BUFX4
ABUFX4_12 [_19153_] _19153__hier0_bF$buf7 d_lut_BUFX4
ABUFX4_13 [_19153_] _19153__hier0_bF$buf6 d_lut_BUFX4
ABUFX4_14 [_19153_] _19153__hier0_bF$buf5 d_lut_BUFX4
ABUFX4_15 [_19153_] _19153__hier0_bF$buf4 d_lut_BUFX4
ABUFX4_16 [_19153_] _19153__hier0_bF$buf3 d_lut_BUFX4
ABUFX4_17 [_19153_] _19153__hier0_bF$buf2 d_lut_BUFX4
ABUFX4_18 [_19153_] _19153__hier0_bF$buf1 d_lut_BUFX4
ABUFX4_19 [_19153_] _19153__hier0_bF$buf0 d_lut_BUFX4
ABUFX4_20 [_20622_] _20622__bF$buf4 d_lut_BUFX4
ABUFX4_21 [_20622_] _20622__bF$buf3 d_lut_BUFX4
ABUFX4_22 [_20622_] _20622__bF$buf2 d_lut_BUFX4
ABUFX4_23 [_20622_] _20622__bF$buf1 d_lut_BUFX4
ABUFX4_24 [_20622_] _20622__bF$buf0 d_lut_BUFX4
ABUFX4_25 [_17412_] _17412__bF$buf4 d_lut_BUFX4
ABUFX4_26 [_17412_] _17412__bF$buf3 d_lut_BUFX4
ABUFX4_27 [_17412_] _17412__bF$buf2 d_lut_BUFX4
ABUFX4_28 [_17412_] _17412__bF$buf1 d_lut_BUFX4
ABUFX4_29 [_17412_] _17412__bF$buf0 d_lut_BUFX4
ABUFX4_30 [_20580_] _20580__bF$buf4 d_lut_BUFX4
ABUFX4_31 [_20580_] _20580__bF$buf3 d_lut_BUFX4
ABUFX4_32 [_20580_] _20580__bF$buf2 d_lut_BUFX4
ABUFX4_33 [_20580_] _20580__bF$buf1 d_lut_BUFX4
ABUFX4_34 [_20580_] _20580__bF$buf0 d_lut_BUFX4
ABUFX4_35 [reg_dataIn_31_] reg_dataIn_31_bF$buf4 d_lut_BUFX4
ABUFX4_36 [reg_dataIn_31_] reg_dataIn_31_bF$buf3 d_lut_BUFX4
ABUFX4_37 [reg_dataIn_31_] reg_dataIn_31_bF$buf2 d_lut_BUFX4
ABUFX4_38 [reg_dataIn_31_] reg_dataIn_31_bF$buf1 d_lut_BUFX4
ABUFX4_39 [reg_dataIn_31_] reg_dataIn_31_bF$buf0 d_lut_BUFX4
ABUFX4_40 [adder.subtract] adder.subtract_bF$buf3 d_lut_BUFX4
ABUFX4_41 [adder.subtract] adder.subtract_bF$buf2 d_lut_BUFX4
ABUFX4_42 [adder.subtract] adder.subtract_bF$buf1 d_lut_BUFX4
ABUFX2_1 [adder.subtract] adder.subtract_bF$buf0 d_lut_BUFX2
ABUFX4_43 [_3263_] _3263__bF$buf3 d_lut_BUFX4
ABUFX4_44 [_3263_] _3263__bF$buf2 d_lut_BUFX4
ABUFX4_45 [_3263_] _3263__bF$buf1 d_lut_BUFX4
ABUFX4_46 [_3263_] _3263__bF$buf0 d_lut_BUFX4
ABUFX4_47 [divider.absoluteValue_B.flipSign.result_26_] divider.absoluteValue_B.flipSign.result_26_bF$buf3 d_lut_BUFX4
ABUFX4_48 [divider.absoluteValue_B.flipSign.result_26_] divider.absoluteValue_B.flipSign.result_26_bF$buf2 d_lut_BUFX4
ABUFX2_2 [divider.absoluteValue_B.flipSign.result_26_] divider.absoluteValue_B.flipSign.result_26_bF$buf1 d_lut_BUFX2
ABUFX2_3 [divider.absoluteValue_B.flipSign.result_26_] divider.absoluteValue_B.flipSign.result_26_bF$buf0 d_lut_BUFX2
ABUFX4_49 [instructionIn_31_] instructionIn_31_bF$buf3 d_lut_BUFX4
ABUFX4_50 [instructionIn_31_] instructionIn_31_bF$buf2 d_lut_BUFX4
ABUFX2_4 [instructionIn_31_] instructionIn_31_bF$buf1 d_lut_BUFX2
ABUFX2_5 [instructionIn_31_] instructionIn_31_bF$buf0 d_lut_BUFX2
ABUFX4_51 [_19292_] _19292__bF$buf7 d_lut_BUFX4
ABUFX4_52 [_19292_] _19292__bF$buf6 d_lut_BUFX4
ABUFX4_53 [_19292_] _19292__bF$buf5 d_lut_BUFX4
ABUFX4_54 [_19292_] _19292__bF$buf4 d_lut_BUFX4
ABUFX4_55 [_19292_] _19292__bF$buf3 d_lut_BUFX4
ABUFX4_56 [_19292_] _19292__bF$buf2 d_lut_BUFX4
ABUFX4_57 [_19292_] _19292__bF$buf1 d_lut_BUFX4
ABUFX4_58 [_19292_] _19292__bF$buf0 d_lut_BUFX4
ABUFX4_59 [aOperand_frameOut_16_] aOperand_frameOut_16_bF$buf4 d_lut_BUFX4
ABUFX4_60 [aOperand_frameOut_16_] aOperand_frameOut_16_bF$buf3 d_lut_BUFX4
ABUFX4_61 [aOperand_frameOut_16_] aOperand_frameOut_16_bF$buf2 d_lut_BUFX4
ABUFX4_62 [aOperand_frameOut_16_] aOperand_frameOut_16_bF$buf1 d_lut_BUFX4
ABUFX4_63 [aOperand_frameOut_16_] aOperand_frameOut_16_bF$buf0 d_lut_BUFX4
ABUFX4_64 [_19533_] _19533__bF$buf7 d_lut_BUFX4
ABUFX4_65 [_19533_] _19533__bF$buf6 d_lut_BUFX4
ABUFX4_66 [_19533_] _19533__bF$buf5 d_lut_BUFX4
ABUFX4_67 [_19533_] _19533__bF$buf4 d_lut_BUFX4
ABUFX4_68 [_19533_] _19533__bF$buf3 d_lut_BUFX4
ABUFX4_69 [_19533_] _19533__bF$buf2 d_lut_BUFX4
ABUFX4_70 [_19533_] _19533__bF$buf1 d_lut_BUFX4
ABUFX4_71 [_19533_] _19533__bF$buf0 d_lut_BUFX4
ABUFX4_72 [_12310_] _12310__bF$buf3 d_lut_BUFX4
ABUFX4_73 [_12310_] _12310__bF$buf2 d_lut_BUFX4
ABUFX4_74 [_12310_] _12310__bF$buf1 d_lut_BUFX4
ABUFX4_75 [_12310_] _12310__bF$buf0 d_lut_BUFX4
ABUFX4_76 [_19804_] _19804__bF$buf7 d_lut_BUFX4
ABUFX4_77 [_19804_] _19804__bF$buf6 d_lut_BUFX4
ABUFX4_78 [_19804_] _19804__bF$buf5 d_lut_BUFX4
ABUFX4_79 [_19804_] _19804__bF$buf4 d_lut_BUFX4
ABUFX4_80 [_19804_] _19804__bF$buf3 d_lut_BUFX4
ABUFX4_81 [_19804_] _19804__bF$buf2 d_lut_BUFX4
ABUFX4_82 [_19804_] _19804__bF$buf1 d_lut_BUFX4
ABUFX4_83 [_19804_] _19804__bF$buf0 d_lut_BUFX4
ABUFX4_84 [_17236_] _17236__bF$buf3 d_lut_BUFX4
ABUFX4_85 [_17236_] _17236__bF$buf2 d_lut_BUFX4
ABUFX4_86 [_17236_] _17236__bF$buf1 d_lut_BUFX4
ABUFX4_87 [_17236_] _17236__bF$buf0 d_lut_BUFX4
ABUFX4_88 [reg_dataIn_29_] reg_dataIn_29_bF$buf4 d_lut_BUFX4
ABUFX4_89 [reg_dataIn_29_] reg_dataIn_29_bF$buf3 d_lut_BUFX4
ABUFX4_90 [reg_dataIn_29_] reg_dataIn_29_bF$buf2 d_lut_BUFX4
ABUFX4_91 [reg_dataIn_29_] reg_dataIn_29_bF$buf1 d_lut_BUFX4
ABUFX4_92 [reg_dataIn_29_] reg_dataIn_29_bF$buf0 d_lut_BUFX4
ABUFX4_93 [_20615_] _20615__bF$buf4 d_lut_BUFX4
ABUFX4_94 [_20615_] _20615__bF$buf3 d_lut_BUFX4
ABUFX4_95 [_20615_] _20615__bF$buf2 d_lut_BUFX4
ABUFX4_96 [_20615_] _20615__bF$buf1 d_lut_BUFX4
ABUFX4_97 [_20615_] _20615__bF$buf0 d_lut_BUFX4
ABUFX4_98 [_19702_] _19702__bF$buf7 d_lut_BUFX4
ABUFX4_99 [_19702_] _19702__bF$buf6 d_lut_BUFX4
ABUFX4_100 [_19702_] _19702__bF$buf5 d_lut_BUFX4
ABUFX4_101 [_19702_] _19702__bF$buf4 d_lut_BUFX4
ABUFX4_102 [_19702_] _19702__bF$buf3 d_lut_BUFX4
ABUFX4_103 [_19702_] _19702__bF$buf2 d_lut_BUFX4
ABUFX4_104 [_19702_] _19702__bF$buf1 d_lut_BUFX4
ABUFX4_105 [_19702_] _19702__bF$buf0 d_lut_BUFX4
ABUFX4_106 [_17435_] _17435__bF$buf4 d_lut_BUFX4
ABUFX4_107 [_17435_] _17435__bF$buf3 d_lut_BUFX4
ABUFX4_108 [_17435_] _17435__bF$buf2 d_lut_BUFX4
ABUFX4_109 [_17435_] _17435__bF$buf1 d_lut_BUFX4
ABUFX4_110 [_17435_] _17435__bF$buf0 d_lut_BUFX4
ABUFX4_111 [_8052_] _8052__bF$buf6 d_lut_BUFX4
ABUFX4_112 [_8052_] _8052__bF$buf5 d_lut_BUFX4
ABUFX4_113 [_8052_] _8052__bF$buf4 d_lut_BUFX4
ABUFX4_114 [_8052_] _8052__bF$buf3 d_lut_BUFX4
ABUFX4_115 [_8052_] _8052__bF$buf2 d_lut_BUFX4
ABUFX4_116 [_8052_] _8052__bF$buf1 d_lut_BUFX4
ABUFX4_117 [_8052_] _8052__bF$buf0 d_lut_BUFX4
ABUFX4_118 [divider.absoluteValue_B.flipSign.result_21_] divider.absoluteValue_B.flipSign.result_21_bF$buf3 d_lut_BUFX4
ABUFX4_119 [divider.absoluteValue_B.flipSign.result_21_] divider.absoluteValue_B.flipSign.result_21_bF$buf2 d_lut_BUFX4
ABUFX4_120 [divider.absoluteValue_B.flipSign.result_21_] divider.absoluteValue_B.flipSign.result_21_bF$buf1 d_lut_BUFX4
ABUFX4_121 [divider.absoluteValue_B.flipSign.result_21_] divider.absoluteValue_B.flipSign.result_21_bF$buf0 d_lut_BUFX4
ABUFX4_122 [_17393_] _17393__bF$buf4 d_lut_BUFX4
ABUFX4_123 [_17393_] _17393__bF$buf3 d_lut_BUFX4
ABUFX4_124 [_17393_] _17393__bF$buf2 d_lut_BUFX4
ABUFX4_125 [_17393_] _17393__bF$buf1 d_lut_BUFX4
ABUFX4_126 [_17393_] _17393__bF$buf0 d_lut_BUFX4
ABUFX4_127 [aOperand_frameOut_11_] aOperand_frameOut_11_bF$buf4 d_lut_BUFX4
ABUFX4_128 [aOperand_frameOut_11_] aOperand_frameOut_11_bF$buf3 d_lut_BUFX4
ABUFX4_129 [aOperand_frameOut_11_] aOperand_frameOut_11_bF$buf2 d_lut_BUFX4
ABUFX4_130 [aOperand_frameOut_11_] aOperand_frameOut_11_bF$buf1 d_lut_BUFX4
ABUFX4_131 [aOperand_frameOut_11_] aOperand_frameOut_11_bF$buf0 d_lut_BUFX4
ABUFX4_132 [aOperand_frameOut_6_] aOperand_frameOut_6_bF$buf4 d_lut_BUFX4
ABUFX4_133 [aOperand_frameOut_6_] aOperand_frameOut_6_bF$buf3 d_lut_BUFX4
ABUFX4_134 [aOperand_frameOut_6_] aOperand_frameOut_6_bF$buf2 d_lut_BUFX4
ABUFX4_135 [aOperand_frameOut_6_] aOperand_frameOut_6_bF$buf1 d_lut_BUFX4
ABUFX4_136 [aOperand_frameOut_6_] aOperand_frameOut_6_bF$buf0 d_lut_BUFX4
ABUFX4_137 [reg_dataIn_24_] reg_dataIn_24_bF$buf4 d_lut_BUFX4
ABUFX4_138 [reg_dataIn_24_] reg_dataIn_24_bF$buf3 d_lut_BUFX4
ABUFX4_139 [reg_dataIn_24_] reg_dataIn_24_bF$buf2 d_lut_BUFX4
ABUFX4_140 [reg_dataIn_24_] reg_dataIn_24_bF$buf1 d_lut_BUFX4
ABUFX4_141 [reg_dataIn_24_] reg_dataIn_24_bF$buf0 d_lut_BUFX4
ABUFX4_142 [_20610_] _20610__bF$buf4 d_lut_BUFX4
ABUFX4_143 [_20610_] _20610__bF$buf3 d_lut_BUFX4
ABUFX4_144 [_20610_] _20610__bF$buf2 d_lut_BUFX4
ABUFX4_145 [_20610_] _20610__bF$buf1 d_lut_BUFX4
ABUFX4_146 [_20610_] _20610__bF$buf0 d_lut_BUFX4
ABUFX4_147 [_17400_] _17400__bF$buf4 d_lut_BUFX4
ABUFX4_148 [_17400_] _17400__bF$buf3 d_lut_BUFX4
ABUFX4_149 [_17400_] _17400__bF$buf2 d_lut_BUFX4
ABUFX4_150 [_17400_] _17400__bF$buf1 d_lut_BUFX4
ABUFX4_151 [_17400_] _17400__bF$buf0 d_lut_BUFX4
ABUFX4_152 [clk_hier0_bF$buf9] clk_bF$buf106 d_lut_BUFX4
ABUFX4_153 [clk_hier0_bF$buf8] clk_bF$buf105 d_lut_BUFX4
ABUFX4_154 [clk_hier0_bF$buf7] clk_bF$buf104 d_lut_BUFX4
ABUFX4_155 [clk_hier0_bF$buf6] clk_bF$buf103 d_lut_BUFX4
ABUFX4_156 [clk_hier0_bF$buf5] clk_bF$buf102 d_lut_BUFX4
ABUFX4_157 [clk_hier0_bF$buf4] clk_bF$buf101 d_lut_BUFX4
ABUFX4_158 [clk_hier0_bF$buf3] clk_bF$buf100 d_lut_BUFX4
ABUFX4_159 [clk_hier0_bF$buf2] clk_bF$buf99 d_lut_BUFX4
ABUFX4_160 [clk_hier0_bF$buf1] clk_bF$buf98 d_lut_BUFX4
ABUFX4_161 [clk_hier0_bF$buf0] clk_bF$buf97 d_lut_BUFX4
ABUFX4_162 [clk_hier0_bF$buf9] clk_bF$buf96 d_lut_BUFX4
ABUFX4_163 [clk_hier0_bF$buf8] clk_bF$buf95 d_lut_BUFX4
ABUFX4_164 [clk_hier0_bF$buf7] clk_bF$buf94 d_lut_BUFX4
ABUFX4_165 [clk_hier0_bF$buf6] clk_bF$buf93 d_lut_BUFX4
ABUFX4_166 [clk_hier0_bF$buf5] clk_bF$buf92 d_lut_BUFX4
ABUFX4_167 [clk_hier0_bF$buf4] clk_bF$buf91 d_lut_BUFX4
ABUFX4_168 [clk_hier0_bF$buf3] clk_bF$buf90 d_lut_BUFX4
ABUFX4_169 [clk_hier0_bF$buf2] clk_bF$buf89 d_lut_BUFX4
ABUFX4_170 [clk_hier0_bF$buf1] clk_bF$buf88 d_lut_BUFX4
ABUFX4_171 [clk_hier0_bF$buf0] clk_bF$buf87 d_lut_BUFX4
ABUFX4_172 [clk_hier0_bF$buf9] clk_bF$buf86 d_lut_BUFX4
ABUFX4_173 [clk_hier0_bF$buf8] clk_bF$buf85 d_lut_BUFX4
ABUFX4_174 [clk_hier0_bF$buf7] clk_bF$buf84 d_lut_BUFX4
ABUFX4_175 [clk_hier0_bF$buf6] clk_bF$buf83 d_lut_BUFX4
ABUFX4_176 [clk_hier0_bF$buf5] clk_bF$buf82 d_lut_BUFX4
ABUFX4_177 [clk_hier0_bF$buf4] clk_bF$buf81 d_lut_BUFX4
ABUFX4_178 [clk_hier0_bF$buf3] clk_bF$buf80 d_lut_BUFX4
ABUFX4_179 [clk_hier0_bF$buf2] clk_bF$buf79 d_lut_BUFX4
ABUFX4_180 [clk_hier0_bF$buf1] clk_bF$buf78 d_lut_BUFX4
ABUFX4_181 [clk_hier0_bF$buf0] clk_bF$buf77 d_lut_BUFX4
ABUFX4_182 [clk_hier0_bF$buf9] clk_bF$buf76 d_lut_BUFX4
ABUFX4_183 [clk_hier0_bF$buf8] clk_bF$buf75 d_lut_BUFX4
ABUFX4_184 [clk_hier0_bF$buf7] clk_bF$buf74 d_lut_BUFX4
ABUFX4_185 [clk_hier0_bF$buf6] clk_bF$buf73 d_lut_BUFX4
ABUFX4_186 [clk_hier0_bF$buf5] clk_bF$buf72 d_lut_BUFX4
ABUFX4_187 [clk_hier0_bF$buf4] clk_bF$buf71 d_lut_BUFX4
ABUFX4_188 [clk_hier0_bF$buf3] clk_bF$buf70 d_lut_BUFX4
ABUFX4_189 [clk_hier0_bF$buf2] clk_bF$buf69 d_lut_BUFX4
ABUFX4_190 [clk_hier0_bF$buf1] clk_bF$buf68 d_lut_BUFX4
ABUFX4_191 [clk_hier0_bF$buf0] clk_bF$buf67 d_lut_BUFX4
ABUFX4_192 [clk_hier0_bF$buf9] clk_bF$buf66 d_lut_BUFX4
ABUFX4_193 [clk_hier0_bF$buf8] clk_bF$buf65 d_lut_BUFX4
ABUFX4_194 [clk_hier0_bF$buf7] clk_bF$buf64 d_lut_BUFX4
ABUFX4_195 [clk_hier0_bF$buf6] clk_bF$buf63 d_lut_BUFX4
ABUFX4_196 [clk_hier0_bF$buf5] clk_bF$buf62 d_lut_BUFX4
ABUFX4_197 [clk_hier0_bF$buf4] clk_bF$buf61 d_lut_BUFX4
ABUFX4_198 [clk_hier0_bF$buf3] clk_bF$buf60 d_lut_BUFX4
ABUFX4_199 [clk_hier0_bF$buf2] clk_bF$buf59 d_lut_BUFX4
ABUFX4_200 [clk_hier0_bF$buf1] clk_bF$buf58 d_lut_BUFX4
ABUFX4_201 [clk_hier0_bF$buf0] clk_bF$buf57 d_lut_BUFX4
ABUFX4_202 [clk_hier0_bF$buf9] clk_bF$buf56 d_lut_BUFX4
ABUFX4_203 [clk_hier0_bF$buf8] clk_bF$buf55 d_lut_BUFX4
ABUFX4_204 [clk_hier0_bF$buf7] clk_bF$buf54 d_lut_BUFX4
ABUFX4_205 [clk_hier0_bF$buf6] clk_bF$buf53 d_lut_BUFX4
ABUFX4_206 [clk_hier0_bF$buf5] clk_bF$buf52 d_lut_BUFX4
ABUFX4_207 [clk_hier0_bF$buf4] clk_bF$buf51 d_lut_BUFX4
ABUFX4_208 [clk_hier0_bF$buf3] clk_bF$buf50 d_lut_BUFX4
ABUFX4_209 [clk_hier0_bF$buf2] clk_bF$buf49 d_lut_BUFX4
ABUFX4_210 [clk_hier0_bF$buf1] clk_bF$buf48 d_lut_BUFX4
ABUFX4_211 [clk_hier0_bF$buf0] clk_bF$buf47 d_lut_BUFX4
ABUFX4_212 [clk_hier0_bF$buf9] clk_bF$buf46 d_lut_BUFX4
ABUFX4_213 [clk_hier0_bF$buf8] clk_bF$buf45 d_lut_BUFX4
ABUFX4_214 [clk_hier0_bF$buf7] clk_bF$buf44 d_lut_BUFX4
ABUFX4_215 [clk_hier0_bF$buf6] clk_bF$buf43 d_lut_BUFX4
ABUFX4_216 [clk_hier0_bF$buf5] clk_bF$buf42 d_lut_BUFX4
ABUFX4_217 [clk_hier0_bF$buf4] clk_bF$buf41 d_lut_BUFX4
ABUFX4_218 [clk_hier0_bF$buf3] clk_bF$buf40 d_lut_BUFX4
ABUFX4_219 [clk_hier0_bF$buf2] clk_bF$buf39 d_lut_BUFX4
ABUFX4_220 [clk_hier0_bF$buf1] clk_bF$buf38 d_lut_BUFX4
ABUFX4_221 [clk_hier0_bF$buf0] clk_bF$buf37 d_lut_BUFX4
ABUFX4_222 [clk_hier0_bF$buf9] clk_bF$buf36 d_lut_BUFX4
ABUFX4_223 [clk_hier0_bF$buf8] clk_bF$buf35 d_lut_BUFX4
ABUFX4_224 [clk_hier0_bF$buf7] clk_bF$buf34 d_lut_BUFX4
ABUFX4_225 [clk_hier0_bF$buf6] clk_bF$buf33 d_lut_BUFX4
ABUFX4_226 [clk_hier0_bF$buf5] clk_bF$buf32 d_lut_BUFX4
ABUFX4_227 [clk_hier0_bF$buf4] clk_bF$buf31 d_lut_BUFX4
ABUFX4_228 [clk_hier0_bF$buf3] clk_bF$buf30 d_lut_BUFX4
ABUFX4_229 [clk_hier0_bF$buf2] clk_bF$buf29 d_lut_BUFX4
ABUFX4_230 [clk_hier0_bF$buf1] clk_bF$buf28 d_lut_BUFX4
ABUFX4_231 [clk_hier0_bF$buf0] clk_bF$buf27 d_lut_BUFX4
ABUFX4_232 [clk_hier0_bF$buf9] clk_bF$buf26 d_lut_BUFX4
ABUFX4_233 [clk_hier0_bF$buf8] clk_bF$buf25 d_lut_BUFX4
ABUFX4_234 [clk_hier0_bF$buf7] clk_bF$buf24 d_lut_BUFX4
ABUFX4_235 [clk_hier0_bF$buf6] clk_bF$buf23 d_lut_BUFX4
ABUFX4_236 [clk_hier0_bF$buf5] clk_bF$buf22 d_lut_BUFX4
ABUFX4_237 [clk_hier0_bF$buf4] clk_bF$buf21 d_lut_BUFX4
ABUFX4_238 [clk_hier0_bF$buf3] clk_bF$buf20 d_lut_BUFX4
ABUFX4_239 [clk_hier0_bF$buf2] clk_bF$buf19 d_lut_BUFX4
ABUFX4_240 [clk_hier0_bF$buf1] clk_bF$buf18 d_lut_BUFX4
ABUFX4_241 [clk_hier0_bF$buf0] clk_bF$buf17 d_lut_BUFX4
ABUFX4_242 [clk_hier0_bF$buf9] clk_bF$buf16 d_lut_BUFX4
ABUFX4_243 [clk_hier0_bF$buf8] clk_bF$buf15 d_lut_BUFX4
ABUFX4_244 [clk_hier0_bF$buf7] clk_bF$buf14 d_lut_BUFX4
ABUFX4_245 [clk_hier0_bF$buf6] clk_bF$buf13 d_lut_BUFX4
ABUFX4_246 [clk_hier0_bF$buf5] clk_bF$buf12 d_lut_BUFX4
ABUFX4_247 [clk_hier0_bF$buf4] clk_bF$buf11 d_lut_BUFX4
ABUFX4_248 [clk_hier0_bF$buf3] clk_bF$buf10 d_lut_BUFX4
ABUFX4_249 [clk_hier0_bF$buf2] clk_bF$buf9 d_lut_BUFX4
ABUFX4_250 [clk_hier0_bF$buf1] clk_bF$buf8 d_lut_BUFX4
ABUFX4_251 [clk_hier0_bF$buf0] clk_bF$buf7 d_lut_BUFX4
ABUFX4_252 [clk_hier0_bF$buf9] clk_bF$buf6 d_lut_BUFX4
ABUFX4_253 [clk_hier0_bF$buf8] clk_bF$buf5 d_lut_BUFX4
ABUFX4_254 [clk_hier0_bF$buf7] clk_bF$buf4 d_lut_BUFX4
ABUFX4_255 [clk_hier0_bF$buf6] clk_bF$buf3 d_lut_BUFX4
ABUFX4_256 [clk_hier0_bF$buf5] clk_bF$buf2 d_lut_BUFX4
ABUFX4_257 [clk_hier0_bF$buf4] clk_bF$buf1 d_lut_BUFX4
ABUFX4_258 [clk_hier0_bF$buf3] clk_bF$buf0 d_lut_BUFX4
ABUFX4_259 [aOperand_frameOut_1_] aOperand_frameOut_1_bF$buf5 d_lut_BUFX4
ABUFX4_260 [aOperand_frameOut_1_] aOperand_frameOut_1_bF$buf4 d_lut_BUFX4
ABUFX4_261 [aOperand_frameOut_1_] aOperand_frameOut_1_bF$buf3 d_lut_BUFX4
ABUFX4_262 [aOperand_frameOut_1_] aOperand_frameOut_1_bF$buf2 d_lut_BUFX4
ABUFX4_263 [aOperand_frameOut_1_] aOperand_frameOut_1_bF$buf1 d_lut_BUFX4
ABUFX4_264 [aOperand_frameOut_1_] aOperand_frameOut_1_bF$buf0 d_lut_BUFX4
ABUFX4_265 [_13294_] _13294__bF$buf3 d_lut_BUFX4
ABUFX4_266 [_13294_] _13294__bF$buf2 d_lut_BUFX4
ABUFX4_267 [_13294_] _13294__bF$buf1 d_lut_BUFX4
ABUFX2_6 [_13294_] _13294__bF$buf0 d_lut_BUFX2
ABUFX4_268 [divider.absoluteValue_B.flipSign.result_19_] divider.absoluteValue_B.flipSign.result_19_bF$buf4 d_lut_BUFX4
ABUFX4_269 [divider.absoluteValue_B.flipSign.result_19_] divider.absoluteValue_B.flipSign.result_19_bF$buf3 d_lut_BUFX4
ABUFX4_270 [divider.absoluteValue_B.flipSign.result_19_] divider.absoluteValue_B.flipSign.result_19_bF$buf2 d_lut_BUFX4
ABUFX4_271 [divider.absoluteValue_B.flipSign.result_19_] divider.absoluteValue_B.flipSign.result_19_bF$buf1 d_lut_BUFX4
ABUFX4_272 [divider.absoluteValue_B.flipSign.result_19_] divider.absoluteValue_B.flipSign.result_19_bF$buf0 d_lut_BUFX4
ABUFX2_7 [adder.bOperand_17_] adder.bOperand_17_bF$buf3 d_lut_BUFX2
ABUFX2_8 [adder.bOperand_17_] adder.bOperand_17_bF$buf2 d_lut_BUFX2
ABUFX2_9 [adder.bOperand_17_] adder.bOperand_17_bF$buf1 d_lut_BUFX2
ABUFX4_273 [adder.bOperand_17_] adder.bOperand_17_bF$buf0 d_lut_BUFX4
ABUFX4_274 [_4881_] _4881__bF$buf3 d_lut_BUFX4
ABUFX2_10 [_4881_] _4881__bF$buf2 d_lut_BUFX2
ABUFX2_11 [_4881_] _4881__bF$buf1 d_lut_BUFX2
ABUFX2_12 [_4881_] _4881__bF$buf0 d_lut_BUFX2
ABUFX4_275 [_11636_] _11636__bF$buf4 d_lut_BUFX4
ABUFX4_276 [_11636_] _11636__bF$buf3 d_lut_BUFX4
ABUFX4_277 [_11636_] _11636__bF$buf2 d_lut_BUFX4
ABUFX4_278 [_11636_] _11636__bF$buf1 d_lut_BUFX4
ABUFX4_279 [_11636_] _11636__bF$buf0 d_lut_BUFX4
ABUFX4_280 [reg_dataIn_7_] reg_dataIn_7_bF$buf4 d_lut_BUFX4
ABUFX4_281 [reg_dataIn_7_] reg_dataIn_7_bF$buf3 d_lut_BUFX4
ABUFX4_282 [reg_dataIn_7_] reg_dataIn_7_bF$buf2 d_lut_BUFX4
ABUFX4_283 [reg_dataIn_7_] reg_dataIn_7_bF$buf1 d_lut_BUFX4
ABUFX4_284 [reg_dataIn_7_] reg_dataIn_7_bF$buf0 d_lut_BUFX4
ABUFX4_285 [_20066_] _20066__bF$buf7 d_lut_BUFX4
ABUFX4_286 [_20066_] _20066__bF$buf6 d_lut_BUFX4
ABUFX4_287 [_20066_] _20066__bF$buf5 d_lut_BUFX4
ABUFX4_288 [_20066_] _20066__bF$buf4 d_lut_BUFX4
ABUFX4_289 [_20066_] _20066__bF$buf3 d_lut_BUFX4
ABUFX4_290 [_20066_] _20066__bF$buf2 d_lut_BUFX4
ABUFX4_291 [_20066_] _20066__bF$buf1 d_lut_BUFX4
ABUFX4_292 [_20066_] _20066__bF$buf0 d_lut_BUFX4
ABUFX4_293 [_19153__hier0_bF$buf8] _19153__bF$buf98 d_lut_BUFX4
ABUFX4_294 [_19153__hier0_bF$buf7] _19153__bF$buf97 d_lut_BUFX4
ABUFX4_295 [_19153__hier0_bF$buf6] _19153__bF$buf96 d_lut_BUFX4
ABUFX4_296 [_19153__hier0_bF$buf5] _19153__bF$buf95 d_lut_BUFX4
ABUFX4_297 [_19153__hier0_bF$buf4] _19153__bF$buf94 d_lut_BUFX4
ABUFX4_298 [_19153__hier0_bF$buf3] _19153__bF$buf93 d_lut_BUFX4
ABUFX4_299 [_19153__hier0_bF$buf2] _19153__bF$buf92 d_lut_BUFX4
ABUFX4_300 [_19153__hier0_bF$buf1] _19153__bF$buf91 d_lut_BUFX4
ABUFX4_301 [_19153__hier0_bF$buf0] _19153__bF$buf90 d_lut_BUFX4
ABUFX4_302 [_19153__hier0_bF$buf8] _19153__bF$buf89 d_lut_BUFX4
ABUFX4_303 [_19153__hier0_bF$buf7] _19153__bF$buf88 d_lut_BUFX4
ABUFX4_304 [_19153__hier0_bF$buf6] _19153__bF$buf87 d_lut_BUFX4
ABUFX4_305 [_19153__hier0_bF$buf5] _19153__bF$buf86 d_lut_BUFX4
ABUFX4_306 [_19153__hier0_bF$buf4] _19153__bF$buf85 d_lut_BUFX4
ABUFX4_307 [_19153__hier0_bF$buf3] _19153__bF$buf84 d_lut_BUFX4
ABUFX4_308 [_19153__hier0_bF$buf2] _19153__bF$buf83 d_lut_BUFX4
ABUFX4_309 [_19153__hier0_bF$buf1] _19153__bF$buf82 d_lut_BUFX4
ABUFX4_310 [_19153__hier0_bF$buf0] _19153__bF$buf81 d_lut_BUFX4
ABUFX4_311 [_19153__hier0_bF$buf8] _19153__bF$buf80 d_lut_BUFX4
ABUFX4_312 [_19153__hier0_bF$buf7] _19153__bF$buf79 d_lut_BUFX4
ABUFX4_313 [_19153__hier0_bF$buf6] _19153__bF$buf78 d_lut_BUFX4
ABUFX4_314 [_19153__hier0_bF$buf5] _19153__bF$buf77 d_lut_BUFX4
ABUFX4_315 [_19153__hier0_bF$buf4] _19153__bF$buf76 d_lut_BUFX4
ABUFX4_316 [_19153__hier0_bF$buf3] _19153__bF$buf75 d_lut_BUFX4
ABUFX4_317 [_19153__hier0_bF$buf2] _19153__bF$buf74 d_lut_BUFX4
ABUFX4_318 [_19153__hier0_bF$buf1] _19153__bF$buf73 d_lut_BUFX4
ABUFX4_319 [_19153__hier0_bF$buf0] _19153__bF$buf72 d_lut_BUFX4
ABUFX4_320 [_19153__hier0_bF$buf8] _19153__bF$buf71 d_lut_BUFX4
ABUFX4_321 [_19153__hier0_bF$buf7] _19153__bF$buf70 d_lut_BUFX4
ABUFX4_322 [_19153__hier0_bF$buf6] _19153__bF$buf69 d_lut_BUFX4
ABUFX4_323 [_19153__hier0_bF$buf5] _19153__bF$buf68 d_lut_BUFX4
ABUFX4_324 [_19153__hier0_bF$buf4] _19153__bF$buf67 d_lut_BUFX4
ABUFX4_325 [_19153__hier0_bF$buf3] _19153__bF$buf66 d_lut_BUFX4
ABUFX4_326 [_19153__hier0_bF$buf2] _19153__bF$buf65 d_lut_BUFX4
ABUFX4_327 [_19153__hier0_bF$buf1] _19153__bF$buf64 d_lut_BUFX4
ABUFX4_328 [_19153__hier0_bF$buf0] _19153__bF$buf63 d_lut_BUFX4
ABUFX4_329 [_19153__hier0_bF$buf8] _19153__bF$buf62 d_lut_BUFX4
ABUFX4_330 [_19153__hier0_bF$buf7] _19153__bF$buf61 d_lut_BUFX4
ABUFX4_331 [_19153__hier0_bF$buf6] _19153__bF$buf60 d_lut_BUFX4
ABUFX4_332 [_19153__hier0_bF$buf5] _19153__bF$buf59 d_lut_BUFX4
ABUFX4_333 [_19153__hier0_bF$buf4] _19153__bF$buf58 d_lut_BUFX4
ABUFX4_334 [_19153__hier0_bF$buf3] _19153__bF$buf57 d_lut_BUFX4
ABUFX4_335 [_19153__hier0_bF$buf2] _19153__bF$buf56 d_lut_BUFX4
ABUFX4_336 [_19153__hier0_bF$buf1] _19153__bF$buf55 d_lut_BUFX4
ABUFX4_337 [_19153__hier0_bF$buf0] _19153__bF$buf54 d_lut_BUFX4
ABUFX4_338 [_19153__hier0_bF$buf8] _19153__bF$buf53 d_lut_BUFX4
ABUFX4_339 [_19153__hier0_bF$buf7] _19153__bF$buf52 d_lut_BUFX4
ABUFX4_340 [_19153__hier0_bF$buf6] _19153__bF$buf51 d_lut_BUFX4
ABUFX4_341 [_19153__hier0_bF$buf5] _19153__bF$buf50 d_lut_BUFX4
ABUFX4_342 [_19153__hier0_bF$buf4] _19153__bF$buf49 d_lut_BUFX4
ABUFX4_343 [_19153__hier0_bF$buf3] _19153__bF$buf48 d_lut_BUFX4
ABUFX4_344 [_19153__hier0_bF$buf2] _19153__bF$buf47 d_lut_BUFX4
ABUFX4_345 [_19153__hier0_bF$buf1] _19153__bF$buf46 d_lut_BUFX4
ABUFX4_346 [_19153__hier0_bF$buf0] _19153__bF$buf45 d_lut_BUFX4
ABUFX4_347 [_19153__hier0_bF$buf8] _19153__bF$buf44 d_lut_BUFX4
ABUFX4_348 [_19153__hier0_bF$buf7] _19153__bF$buf43 d_lut_BUFX4
ABUFX4_349 [_19153__hier0_bF$buf6] _19153__bF$buf42 d_lut_BUFX4
ABUFX4_350 [_19153__hier0_bF$buf5] _19153__bF$buf41 d_lut_BUFX4
ABUFX4_351 [_19153__hier0_bF$buf4] _19153__bF$buf40 d_lut_BUFX4
ABUFX4_352 [_19153__hier0_bF$buf3] _19153__bF$buf39 d_lut_BUFX4
ABUFX4_353 [_19153__hier0_bF$buf2] _19153__bF$buf38 d_lut_BUFX4
ABUFX4_354 [_19153__hier0_bF$buf1] _19153__bF$buf37 d_lut_BUFX4
ABUFX4_355 [_19153__hier0_bF$buf0] _19153__bF$buf36 d_lut_BUFX4
ABUFX4_356 [_19153__hier0_bF$buf8] _19153__bF$buf35 d_lut_BUFX4
ABUFX4_357 [_19153__hier0_bF$buf7] _19153__bF$buf34 d_lut_BUFX4
ABUFX4_358 [_19153__hier0_bF$buf6] _19153__bF$buf33 d_lut_BUFX4
ABUFX4_359 [_19153__hier0_bF$buf5] _19153__bF$buf32 d_lut_BUFX4
ABUFX4_360 [_19153__hier0_bF$buf4] _19153__bF$buf31 d_lut_BUFX4
ABUFX4_361 [_19153__hier0_bF$buf3] _19153__bF$buf30 d_lut_BUFX4
ABUFX4_362 [_19153__hier0_bF$buf2] _19153__bF$buf29 d_lut_BUFX4
ABUFX4_363 [_19153__hier0_bF$buf1] _19153__bF$buf28 d_lut_BUFX4
ABUFX4_364 [_19153__hier0_bF$buf0] _19153__bF$buf27 d_lut_BUFX4
ABUFX4_365 [_19153__hier0_bF$buf8] _19153__bF$buf26 d_lut_BUFX4
ABUFX4_366 [_19153__hier0_bF$buf7] _19153__bF$buf25 d_lut_BUFX4
ABUFX4_367 [_19153__hier0_bF$buf6] _19153__bF$buf24 d_lut_BUFX4
ABUFX4_368 [_19153__hier0_bF$buf5] _19153__bF$buf23 d_lut_BUFX4
ABUFX4_369 [_19153__hier0_bF$buf4] _19153__bF$buf22 d_lut_BUFX4
ABUFX4_370 [_19153__hier0_bF$buf3] _19153__bF$buf21 d_lut_BUFX4
ABUFX4_371 [_19153__hier0_bF$buf2] _19153__bF$buf20 d_lut_BUFX4
ABUFX4_372 [_19153__hier0_bF$buf1] _19153__bF$buf19 d_lut_BUFX4
ABUFX4_373 [_19153__hier0_bF$buf0] _19153__bF$buf18 d_lut_BUFX4
ABUFX4_374 [_19153__hier0_bF$buf8] _19153__bF$buf17 d_lut_BUFX4
ABUFX4_375 [_19153__hier0_bF$buf7] _19153__bF$buf16 d_lut_BUFX4
ABUFX4_376 [_19153__hier0_bF$buf6] _19153__bF$buf15 d_lut_BUFX4
ABUFX4_377 [_19153__hier0_bF$buf5] _19153__bF$buf14 d_lut_BUFX4
ABUFX4_378 [_19153__hier0_bF$buf4] _19153__bF$buf13 d_lut_BUFX4
ABUFX4_379 [_19153__hier0_bF$buf3] _19153__bF$buf12 d_lut_BUFX4
ABUFX4_380 [_19153__hier0_bF$buf2] _19153__bF$buf11 d_lut_BUFX4
ABUFX4_381 [_19153__hier0_bF$buf1] _19153__bF$buf10 d_lut_BUFX4
ABUFX4_382 [_19153__hier0_bF$buf0] _19153__bF$buf9 d_lut_BUFX4
ABUFX4_383 [_19153__hier0_bF$buf8] _19153__bF$buf8 d_lut_BUFX4
ABUFX4_384 [_19153__hier0_bF$buf7] _19153__bF$buf7 d_lut_BUFX4
ABUFX4_385 [_19153__hier0_bF$buf6] _19153__bF$buf6 d_lut_BUFX4
ABUFX4_386 [_19153__hier0_bF$buf5] _19153__bF$buf5 d_lut_BUFX4
ABUFX4_387 [_19153__hier0_bF$buf4] _19153__bF$buf4 d_lut_BUFX4
ABUFX4_388 [_19153__hier0_bF$buf3] _19153__bF$buf3 d_lut_BUFX4
ABUFX4_389 [_19153__hier0_bF$buf2] _19153__bF$buf2 d_lut_BUFX4
ABUFX4_390 [_19153__hier0_bF$buf1] _19153__bF$buf1 d_lut_BUFX4
ABUFX4_391 [_19153__hier0_bF$buf0] _19153__bF$buf0 d_lut_BUFX4
ABUFX4_392 [_1484_] _1484__bF$buf4 d_lut_BUFX4
ABUFX4_393 [_1484_] _1484__bF$buf3 d_lut_BUFX4
ABUFX4_394 [_1484_] _1484__bF$buf2 d_lut_BUFX4
ABUFX4_395 [_1484_] _1484__bF$buf1 d_lut_BUFX4
ABUFX4_396 [_1484_] _1484__bF$buf0 d_lut_BUFX4
ABUFX4_397 [_20608_] _20608__bF$buf4 d_lut_BUFX4
ABUFX4_398 [_20608_] _20608__bF$buf3 d_lut_BUFX4
ABUFX4_399 [_20608_] _20608__bF$buf2 d_lut_BUFX4
ABUFX4_400 [_20608_] _20608__bF$buf1 d_lut_BUFX4
ABUFX4_401 [_20608_] _20608__bF$buf0 d_lut_BUFX4
ABUFX4_402 [_78_] _78__bF$buf4 d_lut_BUFX4
ABUFX4_403 [_78_] _78__bF$buf3 d_lut_BUFX4
ABUFX4_404 [_78_] _78__bF$buf2 d_lut_BUFX4
ABUFX4_405 [_78_] _78__bF$buf1 d_lut_BUFX4
ABUFX4_406 [_78_] _78__bF$buf0 d_lut_BUFX4
ABUFX4_407 [divider.absoluteValue_B.flipSign.result_14_] divider.absoluteValue_B.flipSign.result_14_bF$buf5 d_lut_BUFX4
ABUFX4_408 [divider.absoluteValue_B.flipSign.result_14_] divider.absoluteValue_B.flipSign.result_14_bF$buf4 d_lut_BUFX4
ABUFX4_409 [divider.absoluteValue_B.flipSign.result_14_] divider.absoluteValue_B.flipSign.result_14_bF$buf3 d_lut_BUFX4
ABUFX4_410 [divider.absoluteValue_B.flipSign.result_14_] divider.absoluteValue_B.flipSign.result_14_bF$buf2 d_lut_BUFX4
ABUFX4_411 [divider.absoluteValue_B.flipSign.result_14_] divider.absoluteValue_B.flipSign.result_14_bF$buf1 d_lut_BUFX4
ABUFX4_412 [divider.absoluteValue_B.flipSign.result_14_] divider.absoluteValue_B.flipSign.result_14_bF$buf0 d_lut_BUFX4
ABUFX4_413 [_2922_] _2922__bF$buf3 d_lut_BUFX4
ABUFX4_414 [_2922_] _2922__bF$buf2 d_lut_BUFX4
ABUFX4_415 [_2922_] _2922__bF$buf1 d_lut_BUFX4
ABUFX4_416 [_2922_] _2922__bF$buf0 d_lut_BUFX4
ABUFX4_417 [adder.bOperand_12_] adder.bOperand_12_bF$buf3 d_lut_BUFX4
ABUFX4_418 [adder.bOperand_12_] adder.bOperand_12_bF$buf2 d_lut_BUFX4
ABUFX4_419 [adder.bOperand_12_] adder.bOperand_12_bF$buf1 d_lut_BUFX4
ABUFX4_420 [adder.bOperand_12_] adder.bOperand_12_bF$buf0 d_lut_BUFX4
ABUFX4_421 [_17025_] _17025__bF$buf3 d_lut_BUFX4
ABUFX4_422 [_17025_] _17025__bF$buf2 d_lut_BUFX4
ABUFX4_423 [_17025_] _17025__bF$buf1 d_lut_BUFX4
ABUFX4_424 [_17025_] _17025__bF$buf0 d_lut_BUFX4
ABUFX4_425 [_19220_] _19220__bF$buf7 d_lut_BUFX4
ABUFX4_426 [_19220_] _19220__bF$buf6 d_lut_BUFX4
ABUFX4_427 [_19220_] _19220__bF$buf5 d_lut_BUFX4
ABUFX4_428 [_19220_] _19220__bF$buf4 d_lut_BUFX4
ABUFX4_429 [_19220_] _19220__bF$buf3 d_lut_BUFX4
ABUFX4_430 [_19220_] _19220__bF$buf2 d_lut_BUFX4
ABUFX4_431 [_19220_] _19220__bF$buf1 d_lut_BUFX4
ABUFX4_432 [_19220_] _19220__bF$buf0 d_lut_BUFX4
ABUFX4_433 [reg_dataIn_2_] reg_dataIn_2_bF$buf4 d_lut_BUFX4
ABUFX4_434 [reg_dataIn_2_] reg_dataIn_2_bF$buf3 d_lut_BUFX4
ABUFX4_435 [reg_dataIn_2_] reg_dataIn_2_bF$buf2 d_lut_BUFX4
ABUFX4_436 [reg_dataIn_2_] reg_dataIn_2_bF$buf1 d_lut_BUFX4
ABUFX4_437 [reg_dataIn_2_] reg_dataIn_2_bF$buf0 d_lut_BUFX4
ABUFX4_438 [reg_dataIn_17_] reg_dataIn_17_bF$buf4 d_lut_BUFX4
ABUFX4_439 [reg_dataIn_17_] reg_dataIn_17_bF$buf3 d_lut_BUFX4
ABUFX4_440 [reg_dataIn_17_] reg_dataIn_17_bF$buf2 d_lut_BUFX4
ABUFX4_441 [reg_dataIn_17_] reg_dataIn_17_bF$buf1 d_lut_BUFX4
ABUFX4_442 [reg_dataIn_17_] reg_dataIn_17_bF$buf0 d_lut_BUFX4
ABUFX4_443 [divider.a_isNegative] divider.a_isNegative_bF$buf8 d_lut_BUFX4
ABUFX4_444 [divider.a_isNegative] divider.a_isNegative_bF$buf7 d_lut_BUFX4
ABUFX4_445 [divider.a_isNegative] divider.a_isNegative_bF$buf6 d_lut_BUFX4
ABUFX4_446 [divider.a_isNegative] divider.a_isNegative_bF$buf5 d_lut_BUFX4
ABUFX4_447 [divider.a_isNegative] divider.a_isNegative_bF$buf4 d_lut_BUFX4
ABUFX4_448 [divider.a_isNegative] divider.a_isNegative_bF$buf3 d_lut_BUFX4
ABUFX4_449 [divider.a_isNegative] divider.a_isNegative_bF$buf2 d_lut_BUFX4
ABUFX4_450 [divider.a_isNegative] divider.a_isNegative_bF$buf1 d_lut_BUFX4
ABUFX4_451 [divider.a_isNegative] divider.a_isNegative_bF$buf0 d_lut_BUFX4
ABUFX4_452 [_20633_] _20633__bF$buf4 d_lut_BUFX4
ABUFX4_453 [_20633_] _20633__bF$buf3 d_lut_BUFX4
ABUFX4_454 [_20633_] _20633__bF$buf2 d_lut_BUFX4
ABUFX4_455 [_20633_] _20633__bF$buf1 d_lut_BUFX4
ABUFX4_456 [_20633_] _20633__bF$buf0 d_lut_BUFX4
ABUFX4_457 [divider.absoluteValue_B.flipSign.result_7_] divider.absoluteValue_B.flipSign.result_7_bF$buf6 d_lut_BUFX4
ABUFX4_458 [divider.absoluteValue_B.flipSign.result_7_] divider.absoluteValue_B.flipSign.result_7_bF$buf5 d_lut_BUFX4
ABUFX4_459 [divider.absoluteValue_B.flipSign.result_7_] divider.absoluteValue_B.flipSign.result_7_bF$buf4 d_lut_BUFX4
ABUFX4_460 [divider.absoluteValue_B.flipSign.result_7_] divider.absoluteValue_B.flipSign.result_7_bF$buf3 d_lut_BUFX4
ABUFX4_461 [divider.absoluteValue_B.flipSign.result_7_] divider.absoluteValue_B.flipSign.result_7_bF$buf2 d_lut_BUFX4
ABUFX4_462 [divider.absoluteValue_B.flipSign.result_7_] divider.absoluteValue_B.flipSign.result_7_bF$buf1 d_lut_BUFX4
ABUFX4_463 [divider.absoluteValue_B.flipSign.result_7_] divider.absoluteValue_B.flipSign.result_7_bF$buf0 d_lut_BUFX4