*SPICE netlist created from BLIF module core by blif2BSpice
.include /usr/share/qflow/tech/osu035/osu035_stdcells.sp
.subckt core vdd gnd clk reset instructionIn<0> instructionIn<1> instructionIn<2> instructionIn<3> instructionIn<4> instructionIn<5> instructionIn<6> instructionIn<7> instructionIn<8> instructionIn<9> instructionIn<10> instructionIn<11> instructionIn<12> instructionIn<13> instructionIn<14> instructionIn<15> instructionIn<16> instructionIn<17> instructionIn<18> instructionIn<19> instructionIn<20> instructionIn<21> instructionIn<22> instructionIn<23> instructionIn<24> instructionIn<25> instructionIn<26> instructionIn<27> instructionIn<28> instructionIn<29> instructionIn<30> instructionIn<31> start busy tempRegOut<0> tempRegOut<1> tempRegOut<2> tempRegOut<3> tempRegOut<4> tempRegOut<5> tempRegOut<6> tempRegOut<7> tempRegOut<8> tempRegOut<9> tempRegOut<10> tempRegOut<11> tempRegOut<12> tempRegOut<13> tempRegOut<14> tempRegOut<15> tempRegOut<16> tempRegOut<17> tempRegOut<18> tempRegOut<19> tempRegOut<20> tempRegOut<21> tempRegOut<22> tempRegOut<23> tempRegOut<24> tempRegOut<25> tempRegOut<26> tempRegOut<27> tempRegOut<28> tempRegOut<29> tempRegOut<30> tempRegOut<31> 
XBUFX4_1 vdd gnd clk clk_hier0_bF$buf9 BUFX4
XBUFX4_2 vdd gnd clk clk_hier0_bF$buf8 BUFX4
XBUFX4_3 vdd gnd clk clk_hier0_bF$buf7 BUFX4
XBUFX4_4 vdd gnd clk clk_hier0_bF$buf6 BUFX4
XBUFX4_5 vdd gnd clk clk_hier0_bF$buf5 BUFX4
XBUFX4_6 vdd gnd clk clk_hier0_bF$buf4 BUFX4
XBUFX4_7 vdd gnd clk clk_hier0_bF$buf3 BUFX4
XBUFX4_8 vdd gnd clk clk_hier0_bF$buf2 BUFX4
XBUFX4_9 vdd gnd clk clk_hier0_bF$buf1 BUFX4
XBUFX4_10 vdd gnd clk clk_hier0_bF$buf0 BUFX4
XBUFX4_11 vdd gnd _19153_ _19153__hier0_bF$buf8 BUFX4
XBUFX4_12 vdd gnd _19153_ _19153__hier0_bF$buf7 BUFX4
XBUFX4_13 vdd gnd _19153_ _19153__hier0_bF$buf6 BUFX4
XBUFX4_14 vdd gnd _19153_ _19153__hier0_bF$buf5 BUFX4
XBUFX4_15 vdd gnd _19153_ _19153__hier0_bF$buf4 BUFX4
XBUFX4_16 vdd gnd _19153_ _19153__hier0_bF$buf3 BUFX4
XBUFX4_17 vdd gnd _19153_ _19153__hier0_bF$buf2 BUFX4
XBUFX4_18 vdd gnd _19153_ _19153__hier0_bF$buf1 BUFX4
XBUFX4_19 vdd gnd _19153_ _19153__hier0_bF$buf0 BUFX4
XBUFX4_20 vdd gnd _20622_ _20622__bF$buf4 BUFX4
XBUFX4_21 vdd gnd _20622_ _20622__bF$buf3 BUFX4
XBUFX4_22 vdd gnd _20622_ _20622__bF$buf2 BUFX4
XBUFX4_23 vdd gnd _20622_ _20622__bF$buf1 BUFX4
XBUFX4_24 vdd gnd _20622_ _20622__bF$buf0 BUFX4
XBUFX4_25 vdd gnd _17412_ _17412__bF$buf4 BUFX4
XBUFX4_26 vdd gnd _17412_ _17412__bF$buf3 BUFX4
XBUFX4_27 vdd gnd _17412_ _17412__bF$buf2 BUFX4
XBUFX4_28 vdd gnd _17412_ _17412__bF$buf1 BUFX4
XBUFX4_29 vdd gnd _17412_ _17412__bF$buf0 BUFX4
XBUFX4_30 vdd gnd _20580_ _20580__bF$buf4 BUFX4
XBUFX4_31 vdd gnd _20580_ _20580__bF$buf3 BUFX4
XBUFX4_32 vdd gnd _20580_ _20580__bF$buf2 BUFX4
XBUFX4_33 vdd gnd _20580_ _20580__bF$buf1 BUFX4
XBUFX4_34 vdd gnd _20580_ _20580__bF$buf0 BUFX4
XBUFX4_35 vdd gnd reg_dataIn<31> reg_dataIn_31_bF$buf4 BUFX4
XBUFX4_36 vdd gnd reg_dataIn<31> reg_dataIn_31_bF$buf3 BUFX4
XBUFX4_37 vdd gnd reg_dataIn<31> reg_dataIn_31_bF$buf2 BUFX4
XBUFX4_38 vdd gnd reg_dataIn<31> reg_dataIn_31_bF$buf1 BUFX4
XBUFX4_39 vdd gnd reg_dataIn<31> reg_dataIn_31_bF$buf0 BUFX4
XBUFX4_40 vdd gnd adder.subtract adder.subtract_bF$buf3 BUFX4
XBUFX4_41 vdd gnd adder.subtract adder.subtract_bF$buf2 BUFX4
XBUFX4_42 vdd gnd adder.subtract adder.subtract_bF$buf1 BUFX4
XBUFX2_1 vdd gnd adder.subtract adder.subtract_bF$buf0 BUFX2
XBUFX4_43 vdd gnd _3263_ _3263__bF$buf3 BUFX4
XBUFX4_44 vdd gnd _3263_ _3263__bF$buf2 BUFX4
XBUFX4_45 vdd gnd _3263_ _3263__bF$buf1 BUFX4
XBUFX4_46 vdd gnd _3263_ _3263__bF$buf0 BUFX4
XBUFX4_47 vdd gnd divider.absoluteValue_B.flipSign.result<26> divider.absoluteValue_B.flipSign.result_26_bF$buf3 BUFX4
XBUFX4_48 vdd gnd divider.absoluteValue_B.flipSign.result<26> divider.absoluteValue_B.flipSign.result_26_bF$buf2 BUFX4
XBUFX2_2 vdd gnd divider.absoluteValue_B.flipSign.result<26> divider.absoluteValue_B.flipSign.result_26_bF$buf1 BUFX2
XBUFX2_3 vdd gnd divider.absoluteValue_B.flipSign.result<26> divider.absoluteValue_B.flipSign.result_26_bF$buf0 BUFX2
XBUFX4_49 vdd gnd instructionIn<31> instructionIn_31_bF$buf3 BUFX4
XBUFX4_50 vdd gnd instructionIn<31> instructionIn_31_bF$buf2 BUFX4
XBUFX2_4 vdd gnd instructionIn<31> instructionIn_31_bF$buf1 BUFX2
XBUFX2_5 vdd gnd instructionIn<31> instructionIn_31_bF$buf0 BUFX2
XBUFX4_51 vdd gnd _19292_ _19292__bF$buf7 BUFX4
XBUFX4_52 vdd gnd _19292_ _19292__bF$buf6 BUFX4
XBUFX4_53 vdd gnd _19292_ _19292__bF$buf5 BUFX4
XBUFX4_54 vdd gnd _19292_ _19292__bF$buf4 BUFX4
XBUFX4_55 vdd gnd _19292_ _19292__bF$buf3 BUFX4
XBUFX4_56 vdd gnd _19292_ _19292__bF$buf2 BUFX4
XBUFX4_57 vdd gnd _19292_ _19292__bF$buf1 BUFX4
XBUFX4_58 vdd gnd _19292_ _19292__bF$buf0 BUFX4
XBUFX4_59 vdd gnd aOperand_frameOut<16> aOperand_frameOut_16_bF$buf4 BUFX4
XBUFX4_60 vdd gnd aOperand_frameOut<16> aOperand_frameOut_16_bF$buf3 BUFX4
XBUFX4_61 vdd gnd aOperand_frameOut<16> aOperand_frameOut_16_bF$buf2 BUFX4
XBUFX4_62 vdd gnd aOperand_frameOut<16> aOperand_frameOut_16_bF$buf1 BUFX4
XBUFX4_63 vdd gnd aOperand_frameOut<16> aOperand_frameOut_16_bF$buf0 BUFX4
XBUFX4_64 vdd gnd _19533_ _19533__bF$buf7 BUFX4
XBUFX4_65 vdd gnd _19533_ _19533__bF$buf6 BUFX4
XBUFX4_66 vdd gnd _19533_ _19533__bF$buf5 BUFX4
XBUFX4_67 vdd gnd _19533_ _19533__bF$buf4 BUFX4
XBUFX4_68 vdd gnd _19533_ _19533__bF$buf3 BUFX4
XBUFX4_69 vdd gnd _19533_ _19533__bF$buf2 BUFX4
XBUFX4_70 vdd gnd _19533_ _19533__bF$buf1 BUFX4
XBUFX4_71 vdd gnd _19533_ _19533__bF$buf0 BUFX4
XBUFX4_72 vdd gnd _12310_ _12310__bF$buf3 BUFX4
XBUFX4_73 vdd gnd _12310_ _12310__bF$buf2 BUFX4
XBUFX4_74 vdd gnd _12310_ _12310__bF$buf1 BUFX4
XBUFX4_75 vdd gnd _12310_ _12310__bF$buf0 BUFX4
XBUFX4_76 vdd gnd _19804_ _19804__bF$buf7 BUFX4
XBUFX4_77 vdd gnd _19804_ _19804__bF$buf6 BUFX4
XBUFX4_78 vdd gnd _19804_ _19804__bF$buf5 BUFX4
XBUFX4_79 vdd gnd _19804_ _19804__bF$buf4 BUFX4
XBUFX4_80 vdd gnd _19804_ _19804__bF$buf3 BUFX4
XBUFX4_81 vdd gnd _19804_ _19804__bF$buf2 BUFX4
XBUFX4_82 vdd gnd _19804_ _19804__bF$buf1 BUFX4
XBUFX4_83 vdd gnd _19804_ _19804__bF$buf0 BUFX4
XBUFX4_84 vdd gnd _17236_ _17236__bF$buf3 BUFX4
XBUFX4_85 vdd gnd _17236_ _17236__bF$buf2 BUFX4
XBUFX4_86 vdd gnd _17236_ _17236__bF$buf1 BUFX4
XBUFX4_87 vdd gnd _17236_ _17236__bF$buf0 BUFX4
XBUFX4_88 vdd gnd reg_dataIn<29> reg_dataIn_29_bF$buf4 BUFX4
XBUFX4_89 vdd gnd reg_dataIn<29> reg_dataIn_29_bF$buf3 BUFX4
XBUFX4_90 vdd gnd reg_dataIn<29> reg_dataIn_29_bF$buf2 BUFX4
XBUFX4_91 vdd gnd reg_dataIn<29> reg_dataIn_29_bF$buf1 BUFX4
XBUFX4_92 vdd gnd reg_dataIn<29> reg_dataIn_29_bF$buf0 BUFX4
XBUFX4_93 vdd gnd _20615_ _20615__bF$buf4 BUFX4
XBUFX4_94 vdd gnd _20615_ _20615__bF$buf3 BUFX4
XBUFX4_95 vdd gnd _20615_ _20615__bF$buf2 BUFX4
XBUFX4_96 vdd gnd _20615_ _20615__bF$buf1 BUFX4
XBUFX4_97 vdd gnd _20615_ _20615__bF$buf0 BUFX4
XBUFX4_98 vdd gnd _19702_ _19702__bF$buf7 BUFX4
XBUFX4_99 vdd gnd _19702_ _19702__bF$buf6 BUFX4
XBUFX4_100 vdd gnd _19702_ _19702__bF$buf5 BUFX4
XBUFX4_101 vdd gnd _19702_ _19702__bF$buf4 BUFX4
XBUFX4_102 vdd gnd _19702_ _19702__bF$buf3 BUFX4
XBUFX4_103 vdd gnd _19702_ _19702__bF$buf2 BUFX4
XBUFX4_104 vdd gnd _19702_ _19702__bF$buf1 BUFX4
XBUFX4_105 vdd gnd _19702_ _19702__bF$buf0 BUFX4
XBUFX4_106 vdd gnd _17435_ _17435__bF$buf4 BUFX4
XBUFX4_107 vdd gnd _17435_ _17435__bF$buf3 BUFX4
XBUFX4_108 vdd gnd _17435_ _17435__bF$buf2 BUFX4
XBUFX4_109 vdd gnd _17435_ _17435__bF$buf1 BUFX4
XBUFX4_110 vdd gnd _17435_ _17435__bF$buf0 BUFX4
XBUFX4_111 vdd gnd _8052_ _8052__bF$buf6 BUFX4
XBUFX4_112 vdd gnd _8052_ _8052__bF$buf5 BUFX4
XBUFX4_113 vdd gnd _8052_ _8052__bF$buf4 BUFX4
XBUFX4_114 vdd gnd _8052_ _8052__bF$buf3 BUFX4
XBUFX4_115 vdd gnd _8052_ _8052__bF$buf2 BUFX4
XBUFX4_116 vdd gnd _8052_ _8052__bF$buf1 BUFX4
XBUFX4_117 vdd gnd _8052_ _8052__bF$buf0 BUFX4
XBUFX4_118 vdd gnd divider.absoluteValue_B.flipSign.result<21> divider.absoluteValue_B.flipSign.result_21_bF$buf3 BUFX4
XBUFX4_119 vdd gnd divider.absoluteValue_B.flipSign.result<21> divider.absoluteValue_B.flipSign.result_21_bF$buf2 BUFX4
XBUFX4_120 vdd gnd divider.absoluteValue_B.flipSign.result<21> divider.absoluteValue_B.flipSign.result_21_bF$buf1 BUFX4
XBUFX4_121 vdd gnd divider.absoluteValue_B.flipSign.result<21> divider.absoluteValue_B.flipSign.result_21_bF$buf0 BUFX4
XBUFX4_122 vdd gnd _17393_ _17393__bF$buf4 BUFX4
XBUFX4_123 vdd gnd _17393_ _17393__bF$buf3 BUFX4
XBUFX4_124 vdd gnd _17393_ _17393__bF$buf2 BUFX4
XBUFX4_125 vdd gnd _17393_ _17393__bF$buf1 BUFX4
XBUFX4_126 vdd gnd _17393_ _17393__bF$buf0 BUFX4
XBUFX4_127 vdd gnd aOperand_frameOut<11> aOperand_frameOut_11_bF$buf4 BUFX4
XBUFX4_128 vdd gnd aOperand_frameOut<11> aOperand_frameOut_11_bF$buf3 BUFX4
XBUFX4_129 vdd gnd aOperand_frameOut<11> aOperand_frameOut_11_bF$buf2 BUFX4
XBUFX4_130 vdd gnd aOperand_frameOut<11> aOperand_frameOut_11_bF$buf1 BUFX4
XBUFX4_131 vdd gnd aOperand_frameOut<11> aOperand_frameOut_11_bF$buf0 BUFX4
XBUFX4_132 vdd gnd aOperand_frameOut<6> aOperand_frameOut_6_bF$buf4 BUFX4
XBUFX4_133 vdd gnd aOperand_frameOut<6> aOperand_frameOut_6_bF$buf3 BUFX4
XBUFX4_134 vdd gnd aOperand_frameOut<6> aOperand_frameOut_6_bF$buf2 BUFX4
XBUFX4_135 vdd gnd aOperand_frameOut<6> aOperand_frameOut_6_bF$buf1 BUFX4
XBUFX4_136 vdd gnd aOperand_frameOut<6> aOperand_frameOut_6_bF$buf0 BUFX4
XBUFX4_137 vdd gnd reg_dataIn<24> reg_dataIn_24_bF$buf4 BUFX4
XBUFX4_138 vdd gnd reg_dataIn<24> reg_dataIn_24_bF$buf3 BUFX4
XBUFX4_139 vdd gnd reg_dataIn<24> reg_dataIn_24_bF$buf2 BUFX4
XBUFX4_140 vdd gnd reg_dataIn<24> reg_dataIn_24_bF$buf1 BUFX4
XBUFX4_141 vdd gnd reg_dataIn<24> reg_dataIn_24_bF$buf0 BUFX4
XBUFX4_142 vdd gnd _20610_ _20610__bF$buf4 BUFX4
XBUFX4_143 vdd gnd _20610_ _20610__bF$buf3 BUFX4
XBUFX4_144 vdd gnd _20610_ _20610__bF$buf2 BUFX4
XBUFX4_145 vdd gnd _20610_ _20610__bF$buf1 BUFX4
XBUFX4_146 vdd gnd _20610_ _20610__bF$buf0 BUFX4
XBUFX4_147 vdd gnd _17400_ _17400__bF$buf4 BUFX4
XBUFX4_148 vdd gnd _17400_ _17400__bF$buf3 BUFX4
XBUFX4_149 vdd gnd _17400_ _17400__bF$buf2 BUFX4
XBUFX4_150 vdd gnd _17400_ _17400__bF$buf1 BUFX4
XBUFX4_151 vdd gnd _17400_ _17400__bF$buf0 BUFX4
XBUFX4_152 vdd gnd clk_hier0_bF$buf9 clk_bF$buf106 BUFX4
XBUFX4_153 vdd gnd clk_hier0_bF$buf8 clk_bF$buf105 BUFX4
XBUFX4_154 vdd gnd clk_hier0_bF$buf7 clk_bF$buf104 BUFX4
XBUFX4_155 vdd gnd clk_hier0_bF$buf6 clk_bF$buf103 BUFX4
XBUFX4_156 vdd gnd clk_hier0_bF$buf5 clk_bF$buf102 BUFX4
XBUFX4_157 vdd gnd clk_hier0_bF$buf4 clk_bF$buf101 BUFX4
XBUFX4_158 vdd gnd clk_hier0_bF$buf3 clk_bF$buf100 BUFX4
XBUFX4_159 vdd gnd clk_hier0_bF$buf2 clk_bF$buf99 BUFX4
XBUFX4_160 vdd gnd clk_hier0_bF$buf1 clk_bF$buf98 BUFX4
XBUFX4_161 vdd gnd clk_hier0_bF$buf0 clk_bF$buf97 BUFX4
XBUFX4_162 vdd gnd clk_hier0_bF$buf9 clk_bF$buf96 BUFX4
XBUFX4_163 vdd gnd clk_hier0_bF$buf8 clk_bF$buf95 BUFX4
XBUFX4_164 vdd gnd clk_hier0_bF$buf7 clk_bF$buf94 BUFX4
XBUFX4_165 vdd gnd clk_hier0_bF$buf6 clk_bF$buf93 BUFX4
XBUFX4_166 vdd gnd clk_hier0_bF$buf5 clk_bF$buf92 BUFX4
XBUFX4_167 vdd gnd clk_hier0_bF$buf4 clk_bF$buf91 BUFX4
XBUFX4_168 vdd gnd clk_hier0_bF$buf3 clk_bF$buf90 BUFX4
XBUFX4_169 vdd gnd clk_hier0_bF$buf2 clk_bF$buf89 BUFX4
XBUFX4_170 vdd gnd clk_hier0_bF$buf1 clk_bF$buf88 BUFX4
XBUFX4_171 vdd gnd clk_hier0_bF$buf0 clk_bF$buf87 BUFX4
XBUFX4_172 vdd gnd clk_hier0_bF$buf9 clk_bF$buf86 BUFX4
XBUFX4_173 vdd gnd clk_hier0_bF$buf8 clk_bF$buf85 BUFX4
XBUFX4_174 vdd gnd clk_hier0_bF$buf7 clk_bF$buf84 BUFX4
XBUFX4_175 vdd gnd clk_hier0_bF$buf6 clk_bF$buf83 BUFX4
XBUFX4_176 vdd gnd clk_hier0_bF$buf5 clk_bF$buf82 BUFX4
XBUFX4_177 vdd gnd clk_hier0_bF$buf4 clk_bF$buf81 BUFX4
XBUFX4_178 vdd gnd clk_hier0_bF$buf3 clk_bF$buf80 BUFX4
XBUFX4_179 vdd gnd clk_hier0_bF$buf2 clk_bF$buf79 BUFX4
XBUFX4_180 vdd gnd clk_hier0_bF$buf1 clk_bF$buf78 BUFX4
XBUFX4_181 vdd gnd clk_hier0_bF$buf0 clk_bF$buf77 BUFX4
XBUFX4_182 vdd gnd clk_hier0_bF$buf9 clk_bF$buf76 BUFX4
XBUFX4_183 vdd gnd clk_hier0_bF$buf8 clk_bF$buf75 BUFX4
XBUFX4_184 vdd gnd clk_hier0_bF$buf7 clk_bF$buf74 BUFX4
XBUFX4_185 vdd gnd clk_hier0_bF$buf6 clk_bF$buf73 BUFX4
XBUFX4_186 vdd gnd clk_hier0_bF$buf5 clk_bF$buf72 BUFX4
XBUFX4_187 vdd gnd clk_hier0_bF$buf4 clk_bF$buf71 BUFX4
XBUFX4_188 vdd gnd clk_hier0_bF$buf3 clk_bF$buf70 BUFX4
XBUFX4_189 vdd gnd clk_hier0_bF$buf2 clk_bF$buf69 BUFX4
XBUFX4_190 vdd gnd clk_hier0_bF$buf1 clk_bF$buf68 BUFX4
XBUFX4_191 vdd gnd clk_hier0_bF$buf0 clk_bF$buf67 BUFX4
XBUFX4_192 vdd gnd clk_hier0_bF$buf9 clk_bF$buf66 BUFX4
XBUFX4_193 vdd gnd clk_hier0_bF$buf8 clk_bF$buf65 BUFX4
XBUFX4_194 vdd gnd clk_hier0_bF$buf7 clk_bF$buf64 BUFX4
XBUFX4_195 vdd gnd clk_hier0_bF$buf6 clk_bF$buf63 BUFX4
XBUFX4_196 vdd gnd clk_hier0_bF$buf5 clk_bF$buf62 BUFX4
XBUFX4_197 vdd gnd clk_hier0_bF$buf4 clk_bF$buf61 BUFX4
XBUFX4_198 vdd gnd clk_hier0_bF$buf3 clk_bF$buf60 BUFX4
XBUFX4_199 vdd gnd clk_hier0_bF$buf2 clk_bF$buf59 BUFX4
XBUFX4_200 vdd gnd clk_hier0_bF$buf1 clk_bF$buf58 BUFX4
XBUFX4_201 vdd gnd clk_hier0_bF$buf0 clk_bF$buf57 BUFX4
XBUFX4_202 vdd gnd clk_hier0_bF$buf9 clk_bF$buf56 BUFX4
XBUFX4_203 vdd gnd clk_hier0_bF$buf8 clk_bF$buf55 BUFX4
XBUFX4_204 vdd gnd clk_hier0_bF$buf7 clk_bF$buf54 BUFX4
XBUFX4_205 vdd gnd clk_hier0_bF$buf6 clk_bF$buf53 BUFX4
XBUFX4_206 vdd gnd clk_hier0_bF$buf5 clk_bF$buf52 BUFX4
XBUFX4_207 vdd gnd clk_hier0_bF$buf4 clk_bF$buf51 BUFX4
XBUFX4_208 vdd gnd clk_hier0_bF$buf3 clk_bF$buf50 BUFX4
XBUFX4_209 vdd gnd clk_hier0_bF$buf2 clk_bF$buf49 BUFX4
XBUFX4_210 vdd gnd clk_hier0_bF$buf1 clk_bF$buf48 BUFX4
XBUFX4_211 vdd gnd clk_hier0_bF$buf0 clk_bF$buf47 BUFX4
XBUFX4_212 vdd gnd clk_hier0_bF$buf9 clk_bF$buf46 BUFX4
XBUFX4_213 vdd gnd clk_hier0_bF$buf8 clk_bF$buf45 BUFX4
XBUFX4_214 vdd gnd clk_hier0_bF$buf7 clk_bF$buf44 BUFX4
XBUFX4_215 vdd gnd clk_hier0_bF$buf6 clk_bF$buf43 BUFX4
XBUFX4_216 vdd gnd clk_hier0_bF$buf5 clk_bF$buf42 BUFX4
XBUFX4_217 vdd gnd clk_hier0_bF$buf4 clk_bF$buf41 BUFX4
XBUFX4_218 vdd gnd clk_hier0_bF$buf3 clk_bF$buf40 BUFX4
XBUFX4_219 vdd gnd clk_hier0_bF$buf2 clk_bF$buf39 BUFX4
XBUFX4_220 vdd gnd clk_hier0_bF$buf1 clk_bF$buf38 BUFX4
XBUFX4_221 vdd gnd clk_hier0_bF$buf0 clk_bF$buf37 BUFX4
XBUFX4_222 vdd gnd clk_hier0_bF$buf9 clk_bF$buf36 BUFX4
XBUFX4_223 vdd gnd clk_hier0_bF$buf8 clk_bF$buf35 BUFX4
XBUFX4_224 vdd gnd clk_hier0_bF$buf7 clk_bF$buf34 BUFX4
XBUFX4_225 vdd gnd clk_hier0_bF$buf6 clk_bF$buf33 BUFX4
XBUFX4_226 vdd gnd clk_hier0_bF$buf5 clk_bF$buf32 BUFX4
XBUFX4_227 vdd gnd clk_hier0_bF$buf4 clk_bF$buf31 BUFX4
XBUFX4_228 vdd gnd clk_hier0_bF$buf3 clk_bF$buf30 BUFX4
XBUFX4_229 vdd gnd clk_hier0_bF$buf2 clk_bF$buf29 BUFX4
XBUFX4_230 vdd gnd clk_hier0_bF$buf1 clk_bF$buf28 BUFX4
XBUFX4_231 vdd gnd clk_hier0_bF$buf0 clk_bF$buf27 BUFX4
XBUFX4_232 vdd gnd clk_hier0_bF$buf9 clk_bF$buf26 BUFX4
XBUFX4_233 vdd gnd clk_hier0_bF$buf8 clk_bF$buf25 BUFX4
XBUFX4_234 vdd gnd clk_hier0_bF$buf7 clk_bF$buf24 BUFX4
XBUFX4_235 vdd gnd clk_hier0_bF$buf6 clk_bF$buf23 BUFX4
XBUFX4_236 vdd gnd clk_hier0_bF$buf5 clk_bF$buf22 BUFX4
XBUFX4_237 vdd gnd clk_hier0_bF$buf4 clk_bF$buf21 BUFX4
XBUFX4_238 vdd gnd clk_hier0_bF$buf3 clk_bF$buf20 BUFX4
XBUFX4_239 vdd gnd clk_hier0_bF$buf2 clk_bF$buf19 BUFX4
XBUFX4_240 vdd gnd clk_hier0_bF$buf1 clk_bF$buf18 BUFX4
XBUFX4_241 vdd gnd clk_hier0_bF$buf0 clk_bF$buf17 BUFX4
XBUFX4_242 vdd gnd clk_hier0_bF$buf9 clk_bF$buf16 BUFX4
XBUFX4_243 vdd gnd clk_hier0_bF$buf8 clk_bF$buf15 BUFX4
XBUFX4_244 vdd gnd clk_hier0_bF$buf7 clk_bF$buf14 BUFX4
XBUFX4_245 vdd gnd clk_hier0_bF$buf6 clk_bF$buf13 BUFX4
XBUFX4_246 vdd gnd clk_hier0_bF$buf5 clk_bF$buf12 BUFX4
XBUFX4_247 vdd gnd clk_hier0_bF$buf4 clk_bF$buf11 BUFX4
XBUFX4_248 vdd gnd clk_hier0_bF$buf3 clk_bF$buf10 BUFX4
XBUFX4_249 vdd gnd clk_hier0_bF$buf2 clk_bF$buf9 BUFX4
XBUFX4_250 vdd gnd clk_hier0_bF$buf1 clk_bF$buf8 BUFX4
XBUFX4_251 vdd gnd clk_hier0_bF$buf0 clk_bF$buf7 BUFX4
XBUFX4_252 vdd gnd clk_hier0_bF$buf9 clk_bF$buf6 BUFX4
XBUFX4_253 vdd gnd clk_hier0_bF$buf8 clk_bF$buf5 BUFX4
XBUFX4_254 vdd gnd clk_hier0_bF$buf7 clk_bF$buf4 BUFX4
XBUFX4_255 vdd gnd clk_hier0_bF$buf6 clk_bF$buf3 BUFX4
XBUFX4_256 vdd gnd clk_hier0_bF$buf5 clk_bF$buf2 BUFX4
XBUFX4_257 vdd gnd clk_hier0_bF$buf4 clk_bF$buf1 BUFX4
XBUFX4_258 vdd gnd clk_hier0_bF$buf3 clk_bF$buf0 BUFX4
XBUFX4_259 vdd gnd aOperand_frameOut<1> aOperand_frameOut_1_bF$buf5 BUFX4
XBUFX4_260 vdd gnd aOperand_frameOut<1> aOperand_frameOut_1_bF$buf4 BUFX4
XBUFX4_261 vdd gnd aOperand_frameOut<1> aOperand_frameOut_1_bF$buf3 BUFX4
XBUFX4_262 vdd gnd aOperand_frameOut<1> aOperand_frameOut_1_bF$buf2 BUFX4
XBUFX4_263 vdd gnd aOperand_frameOut<1> aOperand_frameOut_1_bF$buf1 BUFX4
XBUFX4_264 vdd gnd aOperand_frameOut<1> aOperand_frameOut_1_bF$buf0 BUFX4
XBUFX4_265 vdd gnd _13294_ _13294__bF$buf3 BUFX4
XBUFX4_266 vdd gnd _13294_ _13294__bF$buf2 BUFX4
XBUFX4_267 vdd gnd _13294_ _13294__bF$buf1 BUFX4
XBUFX2_6 vdd gnd _13294_ _13294__bF$buf0 BUFX2
XBUFX4_268 vdd gnd divider.absoluteValue_B.flipSign.result<19> divider.absoluteValue_B.flipSign.result_19_bF$buf4 BUFX4
XBUFX4_269 vdd gnd divider.absoluteValue_B.flipSign.result<19> divider.absoluteValue_B.flipSign.result_19_bF$buf3 BUFX4
XBUFX4_270 vdd gnd divider.absoluteValue_B.flipSign.result<19> divider.absoluteValue_B.flipSign.result_19_bF$buf2 BUFX4
XBUFX4_271 vdd gnd divider.absoluteValue_B.flipSign.result<19> divider.absoluteValue_B.flipSign.result_19_bF$buf1 BUFX4
XBUFX4_272 vdd gnd divider.absoluteValue_B.flipSign.result<19> divider.absoluteValue_B.flipSign.result_19_bF$buf0 BUFX4
XBUFX2_7 vdd gnd adder.bOperand<17> adder.bOperand_17_bF$buf3 BUFX2
XBUFX2_8 vdd gnd adder.bOperand<17> adder.bOperand_17_bF$buf2 BUFX2
XBUFX2_9 vdd gnd adder.bOperand<17> adder.bOperand_17_bF$buf1 BUFX2
XBUFX4_273 vdd gnd adder.bOperand<17> adder.bOperand_17_bF$buf0 BUFX4
XBUFX4_274 vdd gnd _4881_ _4881__bF$buf3 BUFX4
XBUFX2_10 vdd gnd _4881_ _4881__bF$buf2 BUFX2
XBUFX2_11 vdd gnd _4881_ _4881__bF$buf1 BUFX2
XBUFX2_12 vdd gnd _4881_ _4881__bF$buf0 BUFX2
XBUFX4_275 vdd gnd _11636_ _11636__bF$buf4 BUFX4
XBUFX4_276 vdd gnd _11636_ _11636__bF$buf3 BUFX4
XBUFX4_277 vdd gnd _11636_ _11636__bF$buf2 BUFX4
XBUFX4_278 vdd gnd _11636_ _11636__bF$buf1 BUFX4
XBUFX4_279 vdd gnd _11636_ _11636__bF$buf0 BUFX4
XBUFX4_280 vdd gnd reg_dataIn<7> reg_dataIn_7_bF$buf4 BUFX4
XBUFX4_281 vdd gnd reg_dataIn<7> reg_dataIn_7_bF$buf3 BUFX4
XBUFX4_282 vdd gnd reg_dataIn<7> reg_dataIn_7_bF$buf2 BUFX4
XBUFX4_283 vdd gnd reg_dataIn<7> reg_dataIn_7_bF$buf1 BUFX4
XBUFX4_284 vdd gnd reg_dataIn<7> reg_dataIn_7_bF$buf0 BUFX4
XBUFX4_285 vdd gnd _20066_ _20066__bF$buf7 BUFX4
XBUFX4_286 vdd gnd _20066_ _20066__bF$buf6 BUFX4
XBUFX4_287 vdd gnd _20066_ _20066__bF$buf5 BUFX4
XBUFX4_288 vdd gnd _20066_ _20066__bF$buf4 BUFX4
XBUFX4_289 vdd gnd _20066_ _20066__bF$buf3 BUFX4
XBUFX4_290 vdd gnd _20066_ _20066__bF$buf2 BUFX4
XBUFX4_291 vdd gnd _20066_ _20066__bF$buf1 BUFX4
XBUFX4_292 vdd gnd _20066_ _20066__bF$buf0 BUFX4
XBUFX4_293 vdd gnd _19153__hier0_bF$buf8 _19153__bF$buf98 BUFX4
XBUFX4_294 vdd gnd _19153__hier0_bF$buf7 _19153__bF$buf97 BUFX4
XBUFX4_295 vdd gnd _19153__hier0_bF$buf6 _19153__bF$buf96 BUFX4
XBUFX4_296 vdd gnd _19153__hier0_bF$buf5 _19153__bF$buf95 BUFX4
XBUFX4_297 vdd gnd _19153__hier0_bF$buf4 _19153__bF$buf94 BUFX4
XBUFX4_298 vdd gnd _19153__hier0_bF$buf3 _19153__bF$buf93 BUFX4
XBUFX4_299 vdd gnd _19153__hier0_bF$buf2 _19153__bF$buf92 BUFX4
XBUFX4_300 vdd gnd _19153__hier0_bF$buf1 _19153__bF$buf91 BUFX4
XBUFX4_301 vdd gnd _19153__hier0_bF$buf0 _19153__bF$buf90 BUFX4
XBUFX4_302 vdd gnd _19153__hier0_bF$buf8 _19153__bF$buf89 BUFX4
XBUFX4_303 vdd gnd _19153__hier0_bF$buf7 _19153__bF$buf88 BUFX4
XBUFX4_304 vdd gnd _19153__hier0_bF$buf6 _19153__bF$buf87 BUFX4
XBUFX4_305 vdd gnd _19153__hier0_bF$buf5 _19153__bF$buf86 BUFX4
XBUFX4_306 vdd gnd _19153__hier0_bF$buf4 _19153__bF$buf85 BUFX4
XBUFX4_307 vdd gnd _19153__hier0_bF$buf3 _19153__bF$buf84 BUFX4
XBUFX4_308 vdd gnd _19153__hier0_bF$buf2 _19153__bF$buf83 BUFX4
XBUFX4_309 vdd gnd _19153__hier0_bF$buf1 _19153__bF$buf82 BUFX4
XBUFX4_310 vdd gnd _19153__hier0_bF$buf0 _19153__bF$buf81 BUFX4
XBUFX4_311 vdd gnd _19153__hier0_bF$buf8 _19153__bF$buf80 BUFX4
XBUFX4_312 vdd gnd _19153__hier0_bF$buf7 _19153__bF$buf79 BUFX4
XBUFX4_313 vdd gnd _19153__hier0_bF$buf6 _19153__bF$buf78 BUFX4
XBUFX4_314 vdd gnd _19153__hier0_bF$buf5 _19153__bF$buf77 BUFX4
XBUFX4_315 vdd gnd _19153__hier0_bF$buf4 _19153__bF$buf76 BUFX4
XBUFX4_316 vdd gnd _19153__hier0_bF$buf3 _19153__bF$buf75 BUFX4
XBUFX4_317 vdd gnd _19153__hier0_bF$buf2 _19153__bF$buf74 BUFX4
XBUFX4_318 vdd gnd _19153__hier0_bF$buf1 _19153__bF$buf73 BUFX4
XBUFX4_319 vdd gnd _19153__hier0_bF$buf0 _19153__bF$buf72 BUFX4
XBUFX4_320 vdd gnd _19153__hier0_bF$buf8 _19153__bF$buf71 BUFX4
XBUFX4_321 vdd gnd _19153__hier0_bF$buf7 _19153__bF$buf70 BUFX4
XBUFX4_322 vdd gnd _19153__hier0_bF$buf6 _19153__bF$buf69 BUFX4
XBUFX4_323 vdd gnd _19153__hier0_bF$buf5 _19153__bF$buf68 BUFX4
XBUFX4_324 vdd gnd _19153__hier0_bF$buf4 _19153__bF$buf67 BUFX4
XBUFX4_325 vdd gnd _19153__hier0_bF$buf3 _19153__bF$buf66 BUFX4
XBUFX4_326 vdd gnd _19153__hier0_bF$buf2 _19153__bF$buf65 BUFX4
XBUFX4_327 vdd gnd _19153__hier0_bF$buf1 _19153__bF$buf64 BUFX4
XBUFX4_328 vdd gnd _19153__hier0_bF$buf0 _19153__bF$buf63 BUFX4
XBUFX4_329 vdd gnd _19153__hier0_bF$buf8 _19153__bF$buf62 BUFX4
XBUFX4_330 vdd gnd _19153__hier0_bF$buf7 _19153__bF$buf61 BUFX4
XBUFX4_331 vdd gnd _19153__hier0_bF$buf6 _19153__bF$buf60 BUFX4
XBUFX4_332 vdd gnd _19153__hier0_bF$buf5 _19153__bF$buf59 BUFX4
XBUFX4_333 vdd gnd _19153__hier0_bF$buf4 _19153__bF$buf58 BUFX4
XBUFX4_334 vdd gnd _19153__hier0_bF$buf3 _19153__bF$buf57 BUFX4
XBUFX4_335 vdd gnd _19153__hier0_bF$buf2 _19153__bF$buf56 BUFX4
XBUFX4_336 vdd gnd _19153__hier0_bF$buf1 _19153__bF$buf55 BUFX4
XBUFX4_337 vdd gnd _19153__hier0_bF$buf0 _19153__bF$buf54 BUFX4
XBUFX4_338 vdd gnd _19153__hier0_bF$buf8 _19153__bF$buf53 BUFX4
XBUFX4_339 vdd gnd _19153__hier0_bF$buf7 _19153__bF$buf52 BUFX4
XBUFX4_340 vdd gnd _19153__hier0_bF$buf6 _19153__bF$buf51 BUFX4
XBUFX4_341 vdd gnd _19153__hier0_bF$buf5 _19153__bF$buf50 BUFX4
XBUFX4_342 vdd gnd _19153__hier0_bF$buf4 _19153__bF$buf49 BUFX4
XBUFX4_343 vdd gnd _19153__hier0_bF$buf3 _19153__bF$buf48 BUFX4
XBUFX4_344 vdd gnd _19153__hier0_bF$buf2 _19153__bF$buf47 BUFX4
XBUFX4_345 vdd gnd _19153__hier0_bF$buf1 _19153__bF$buf46 BUFX4
XBUFX4_346 vdd gnd _19153__hier0_bF$buf0 _19153__bF$buf45 BUFX4
XBUFX4_347 vdd gnd _19153__hier0_bF$buf8 _19153__bF$buf44 BUFX4
XBUFX4_348 vdd gnd _19153__hier0_bF$buf7 _19153__bF$buf43 BUFX4
XBUFX4_349 vdd gnd _19153__hier0_bF$buf6 _19153__bF$buf42 BUFX4
XBUFX4_350 vdd gnd _19153__hier0_bF$buf5 _19153__bF$buf41 BUFX4
XBUFX4_351 vdd gnd _19153__hier0_bF$buf4 _19153__bF$buf40 BUFX4
XBUFX4_352 vdd gnd _19153__hier0_bF$buf3 _19153__bF$buf39 BUFX4
XBUFX4_353 vdd gnd _19153__hier0_bF$buf2 _19153__bF$buf38 BUFX4
XBUFX4_354 vdd gnd _19153__hier0_bF$buf1 _19153__bF$buf37 BUFX4
XBUFX4_355 vdd gnd _19153__hier0_bF$buf0 _19153__bF$buf36 BUFX4
XBUFX4_356 vdd gnd _19153__hier0_bF$buf8 _19153__bF$buf35 BUFX4
XBUFX4_357 vdd gnd _19153__hier0_bF$buf7 _19153__bF$buf34 BUFX4
XBUFX4_358 vdd gnd _19153__hier0_bF$buf6 _19153__bF$buf33 BUFX4
XBUFX4_359 vdd gnd _19153__hier0_bF$buf5 _19153__bF$buf32 BUFX4
XBUFX4_360 vdd gnd _19153__hier0_bF$buf4 _19153__bF$buf31 BUFX4
XBUFX4_361 vdd gnd _19153__hier0_bF$buf3 _19153__bF$buf30 BUFX4
XBUFX4_362 vdd gnd _19153__hier0_bF$buf2 _19153__bF$buf29 BUFX4
XBUFX4_363 vdd gnd _19153__hier0_bF$buf1 _19153__bF$buf28 BUFX4
XBUFX4_364 vdd gnd _19153__hier0_bF$buf0 _19153__bF$buf27 BUFX4
XBUFX4_365 vdd gnd _19153__hier0_bF$buf8 _19153__bF$buf26 BUFX4
XBUFX4_366 vdd gnd _19153__hier0_bF$buf7 _19153__bF$buf25 BUFX4
XBUFX4_367 vdd gnd _19153__hier0_bF$buf6 _19153__bF$buf24 BUFX4
XBUFX4_368 vdd gnd _19153__hier0_bF$buf5 _19153__bF$buf23 BUFX4
XBUFX4_369 vdd gnd _19153__hier0_bF$buf4 _19153__bF$buf22 BUFX4
XBUFX4_370 vdd gnd _19153__hier0_bF$buf3 _19153__bF$buf21 BUFX4
XBUFX4_371 vdd gnd _19153__hier0_bF$buf2 _19153__bF$buf20 BUFX4
XBUFX4_372 vdd gnd _19153__hier0_bF$buf1 _19153__bF$buf19 BUFX4
XBUFX4_373 vdd gnd _19153__hier0_bF$buf0 _19153__bF$buf18 BUFX4
XBUFX4_374 vdd gnd _19153__hier0_bF$buf8 _19153__bF$buf17 BUFX4
XBUFX4_375 vdd gnd _19153__hier0_bF$buf7 _19153__bF$buf16 BUFX4
XBUFX4_376 vdd gnd _19153__hier0_bF$buf6 _19153__bF$buf15 BUFX4
XBUFX4_377 vdd gnd _19153__hier0_bF$buf5 _19153__bF$buf14 BUFX4
XBUFX4_378 vdd gnd _19153__hier0_bF$buf4 _19153__bF$buf13 BUFX4
XBUFX4_379 vdd gnd _19153__hier0_bF$buf3 _19153__bF$buf12 BUFX4
XBUFX4_380 vdd gnd _19153__hier0_bF$buf2 _19153__bF$buf11 BUFX4
XBUFX4_381 vdd gnd _19153__hier0_bF$buf1 _19153__bF$buf10 BUFX4
XBUFX4_382 vdd gnd _19153__hier0_bF$buf0 _19153__bF$buf9 BUFX4
XBUFX4_383 vdd gnd _19153__hier0_bF$buf8 _19153__bF$buf8 BUFX4
XBUFX4_384 vdd gnd _19153__hier0_bF$buf7 _19153__bF$buf7 BUFX4
XBUFX4_385 vdd gnd _19153__hier0_bF$buf6 _19153__bF$buf6 BUFX4
XBUFX4_386 vdd gnd _19153__hier0_bF$buf5 _19153__bF$buf5 BUFX4
XBUFX4_387 vdd gnd _19153__hier0_bF$buf4 _19153__bF$buf4 BUFX4
XBUFX4_388 vdd gnd _19153__hier0_bF$buf3 _19153__bF$buf3 BUFX4
XBUFX4_389 vdd gnd _19153__hier0_bF$buf2 _19153__bF$buf2 BUFX4
XBUFX4_390 vdd gnd _19153__hier0_bF$buf1 _19153__bF$buf1 BUFX4
XBUFX4_391 vdd gnd _19153__hier0_bF$buf0 _19153__bF$buf0 BUFX4
XBUFX4_392 vdd gnd _1484_ _1484__bF$buf4 BUFX4
XBUFX4_393 vdd gnd _1484_ _1484__bF$buf3 BUFX4
XBUFX4_394 vdd gnd _1484_ _1484__bF$buf2 BUFX4
XBUFX4_395 vdd gnd _1484_ _1484__bF$buf1 BUFX4
XBUFX4_396 vdd gnd _1484_ _1484__bF$buf0 BUFX4
XBUFX4_397 vdd gnd _20608_ _20608__bF$buf4 BUFX4
XBUFX4_398 vdd gnd _20608_ _20608__bF$buf3 BUFX4
XBUFX4_399 vdd gnd _20608_ _20608__bF$buf2 BUFX4
XBUFX4_400 vdd gnd _20608_ _20608__bF$buf1 BUFX4
XBUFX4_401 vdd gnd _20608_ _20608__bF$buf0 BUFX4
XBUFX4_402 vdd gnd _78_ _78__bF$buf4 BUFX4
XBUFX4_403 vdd gnd _78_ _78__bF$buf3 BUFX4
XBUFX4_404 vdd gnd _78_ _78__bF$buf2 BUFX4
XBUFX4_405 vdd gnd _78_ _78__bF$buf1 BUFX4
XBUFX4_406 vdd gnd _78_ _78__bF$buf0 BUFX4
XBUFX4_407 vdd gnd divider.absoluteValue_B.flipSign.result<14> divider.absoluteValue_B.flipSign.result_14_bF$buf5 BUFX4
XBUFX4_408 vdd gnd divider.absoluteValue_B.flipSign.result<14> divider.absoluteValue_B.flipSign.result_14_bF$buf4 BUFX4
XBUFX4_409 vdd gnd divider.absoluteValue_B.flipSign.result<14> divider.absoluteValue_B.flipSign.result_14_bF$buf3 BUFX4
XBUFX4_410 vdd gnd divider.absoluteValue_B.flipSign.result<14> divider.absoluteValue_B.flipSign.result_14_bF$buf2 BUFX4
XBUFX4_411 vdd gnd divider.absoluteValue_B.flipSign.result<14> divider.absoluteValue_B.flipSign.result_14_bF$buf1 BUFX4
XBUFX4_412 vdd gnd divider.absoluteValue_B.flipSign.result<14> divider.absoluteValue_B.flipSign.result_14_bF$buf0 BUFX4
XBUFX4_413 vdd gnd _2922_ _2922__bF$buf3 BUFX4
XBUFX4_414 vdd gnd _2922_ _2922__bF$buf2 BUFX4
XBUFX4_415 vdd gnd _2922_ _2922__bF$buf1 BUFX4
XBUFX4_416 vdd gnd _2922_ _2922__bF$buf0 BUFX4
XBUFX4_417 vdd gnd adder.bOperand<12> adder.bOperand_12_bF$buf3 BUFX4
XBUFX4_418 vdd gnd adder.bOperand<12> adder.bOperand_12_bF$buf2 BUFX4
XBUFX4_419 vdd gnd adder.bOperand<12> adder.bOperand_12_bF$buf1 BUFX4
XBUFX4_420 vdd gnd adder.bOperand<12> adder.bOperand_12_bF$buf0 BUFX4
XBUFX4_421 vdd gnd _17025_ _17025__bF$buf3 BUFX4
XBUFX4_422 vdd gnd _17025_ _17025__bF$buf2 BUFX4
XBUFX4_423 vdd gnd _17025_ _17025__bF$buf1 BUFX4
XBUFX4_424 vdd gnd _17025_ _17025__bF$buf0 BUFX4
XBUFX4_425 vdd gnd _19220_ _19220__bF$buf7 BUFX4
XBUFX4_426 vdd gnd _19220_ _19220__bF$buf6 BUFX4
XBUFX4_427 vdd gnd _19220_ _19220__bF$buf5 BUFX4
XBUFX4_428 vdd gnd _19220_ _19220__bF$buf4 BUFX4
XBUFX4_429 vdd gnd _19220_ _19220__bF$buf3 BUFX4
XBUFX4_430 vdd gnd _19220_ _19220__bF$buf2 BUFX4
XBUFX4_431 vdd gnd _19220_ _19220__bF$buf1 BUFX4
XBUFX4_432 vdd gnd _19220_ _19220__bF$buf0 BUFX4
XBUFX4_433 vdd gnd reg_dataIn<2> reg_dataIn_2_bF$buf4 BUFX4
XBUFX4_434 vdd gnd reg_dataIn<2> reg_dataIn_2_bF$buf3 BUFX4
XBUFX4_435 vdd gnd reg_dataIn<2> reg_dataIn_2_bF$buf2 BUFX4
XBUFX4_436 vdd gnd reg_dataIn<2> reg_dataIn_2_bF$buf1 BUFX4
XBUFX4_437 vdd gnd reg_dataIn<2> reg_dataIn_2_bF$buf0 BUFX4
XBUFX4_438 vdd gnd reg_dataIn<17> reg_dataIn_17_bF$buf4 BUFX4
XBUFX4_439 vdd gnd reg_dataIn<17> reg_dataIn_17_bF$buf3 BUFX4
XBUFX4_440 vdd gnd reg_dataIn<17> reg_dataIn_17_bF$buf2 BUFX4
XBUFX4_441 vdd gnd reg_dataIn<17> reg_dataIn_17_bF$buf1 BUFX4
XBUFX4_442 vdd gnd reg_dataIn<17> reg_dataIn_17_bF$buf0 BUFX4
XBUFX4_443 vdd gnd divider.a_isNegative divider.a_isNegative_bF$buf8 BUFX4
XBUFX4_444 vdd gnd divider.a_isNegative divider.a_isNegative_bF$buf7 BUFX4
XBUFX4_445 vdd gnd divider.a_isNegative divider.a_isNegative_bF$buf6 BUFX4
XBUFX4_446 vdd gnd divider.a_isNegative divider.a_isNegative_bF$buf5 BUFX4
XBUFX4_447 vdd gnd divider.a_isNegative divider.a_isNegative_bF$buf4 BUFX4
XBUFX4_448 vdd gnd divider.a_isNegative divider.a_isNegative_bF$buf3 BUFX4
XBUFX4_449 vdd gnd divider.a_isNegative divider.a_isNegative_bF$buf2 BUFX4
XBUFX4_450 vdd gnd divider.a_isNegative divider.a_isNegative_bF$buf1 BUFX4
XBUFX4_451 vdd gnd divider.a_isNegative divider.a_isNegative_bF$buf0 BUFX4
XBUFX4_452 vdd gnd _20633_ _20633__bF$buf4 BUFX4
XBUFX4_453 vdd gnd _20633_ _20633__bF$buf3 BUFX4
XBUFX4_454 vdd gnd _20633_ _20633__bF$buf2 BUFX4
XBUFX4_455 vdd gnd _20633_ _20633__bF$buf1 BUFX4
XBUFX4_456 vdd gnd _20633_ _20633__bF$buf0 BUFX4
XBUFX4_457 vdd gnd divider.absoluteValue_B.flipSign.result<7> divider.absoluteValue_B.flipSign.result_7_bF$buf6 BUFX4
XBUFX4_458 vdd gnd divider.absoluteValue_B.flipSign.result<7> divider.absoluteValue_B.flipSign.result_7_bF$buf5 BUFX4
XBUFX4_459 vdd gnd divider.absoluteValue_B.flipSign.result<7> divider.absoluteValue_B.flipSign.result_7_bF$buf4 BUFX4
XBUFX4_460 vdd gnd divider.absoluteValue_B.flipSign.result<7> divider.absoluteValue_B.flipSign.result_7_bF$buf3 BUFX4
XBUFX4_461 vdd gnd divider.absoluteValue_B.flipSign.result<7> divider.absoluteValue_B.flipSign.result_7_bF$buf2 BUFX4
XBUFX4_462 vdd gnd divider.absoluteValue_B.flipSign.result<7> divider.absoluteValue_B.flipSign.result_7_bF$buf1 BUFX4
XBUFX4_463 vdd gnd divider.absoluteValue_B.flipSign.result<7> divider.absoluteValue_B.flipSign.result_7_bF$buf0 BUFX4
XBUFX4_464 vdd gnd _17423_ _17423__bF$buf4 BUFX4
XBUFX4_465 vdd gnd _17423_ _17423__bF$buf3 BUFX4
XBUFX4_466 vdd gnd _17423_ _17423__bF$buf2 BUFX4
XBUFX4_467 vdd gnd _17423_ _17423__bF$buf1 BUFX4